
OS:Version,
  {1ee6ec36-7819-4818-ac70-6101deefe0c0}, !- Handle
  2.6.0;                                  !- Version Identifier

OS:Schedule:Year,
  {d5339e35-97ac-456f-b5a6-17f01548136a}, !- Handle
  Office Lighting - 6 AM to 11 PM,        !- Name
  {3766759c-9f3b-4e0e-b9fc-bad61fa2d7e8}, !- Schedule Type Limits Name
  12,                                     !- Month 1
  31,                                     !- Day 1
  {6be32a3e-6b06-4f1c-8b6d-299748af3b1c}; !- Week Schedule Until Date 1

OS:ScheduleTypeLimits,
  {3766759c-9f3b-4e0e-b9fc-bad61fa2d7e8}, !- Handle
  Fraction,                               !- Name
  ,                                       !- Lower Limit Value
  ,                                       !- Upper Limit Value
  ,                                       !- Numeric Type
  Dimensionless;                          !- Unit Type

OS:YearDescription,
  {91e02853-f478-4c5a-96ab-9e46ce8c9ffc}, !- Handle
  2018,                                   !- Calendar Year
  ,                                       !- Day of Week for Start Day
  ;                                       !- Is Leap Year

OS:Schedule:Week,
  {6be32a3e-6b06-4f1c-8b6d-299748af3b1c}, !- Handle
  Office Lighting - 6 AM to 11 PM,        !- Name
  ,                                       !- Schedule Rendering Name
  {ba38168a-57ef-4c5b-8be9-733a6c2e5155}, !- Sunday Schedule:Day Name
  {ba38168a-57ef-4c5b-8be9-733a6c2e5155}, !- Monday Schedule:Day Name
  {ba38168a-57ef-4c5b-8be9-733a6c2e5155}, !- Tuesday Schedule:Day Name
  {ba38168a-57ef-4c5b-8be9-733a6c2e5155}, !- Wednesday Schedule:Day Name
  {ba38168a-57ef-4c5b-8be9-733a6c2e5155}, !- Thursday Schedule:Day Name
  {ba38168a-57ef-4c5b-8be9-733a6c2e5155}, !- Friday Schedule:Day Name
  {ba38168a-57ef-4c5b-8be9-733a6c2e5155}, !- Saturday Schedule:Day Name
  {ba38168a-57ef-4c5b-8be9-733a6c2e5155}, !- Holiday Schedule:Day Name
  {ba38168a-57ef-4c5b-8be9-733a6c2e5155}, !- SummerDesignDay Schedule:Day Name
  {ba38168a-57ef-4c5b-8be9-733a6c2e5155}, !- WinterDesignDay Schedule:Day Name
  {ba38168a-57ef-4c5b-8be9-733a6c2e5155}, !- CustomDay1 Schedule:Day Name
  {ba38168a-57ef-4c5b-8be9-733a6c2e5155}; !- CustomDay2 Schedule:Day Name

OS:Schedule:Day,
  {ba38168a-57ef-4c5b-8be9-733a6c2e5155}, !- Handle
  Office Lighting - 6 AM to 11 PM,        !- Name
  {3766759c-9f3b-4e0e-b9fc-bad61fa2d7e8}, !- Schedule Type Limits Name
  ,                                       !- Interpolate to Timestep
  1,                                      !- Hour 1
  0,                                      !- Minute 1
  0,                                      !- Value Until Time 1
  2,                                      !- Hour 2
  0,                                      !- Minute 2
  0,                                      !- Value Until Time 2
  3,                                      !- Hour 3
  0,                                      !- Minute 3
  0,                                      !- Value Until Time 3
  4,                                      !- Hour 4
  0,                                      !- Minute 4
  0,                                      !- Value Until Time 4
  5,                                      !- Hour 5
  0,                                      !- Minute 5
  0,                                      !- Value Until Time 5
  6,                                      !- Hour 6
  0,                                      !- Minute 6
  0,                                      !- Value Until Time 6
  7,                                      !- Hour 7
  0,                                      !- Minute 7
  0.1,                                    !- Value Until Time 7
  8,                                      !- Hour 8
  0,                                      !- Minute 8
  0.3,                                    !- Value Until Time 8
  9,                                      !- Hour 9
  0,                                      !- Minute 9
  0.9,                                    !- Value Until Time 9
  10,                                     !- Hour 10
  0,                                      !- Minute 10
  0.9,                                    !- Value Until Time 10
  11,                                     !- Hour 11
  0,                                      !- Minute 11
  0.9,                                    !- Value Until Time 11
  12,                                     !- Hour 12
  0,                                      !- Minute 12
  0.9,                                    !- Value Until Time 12
  13,                                     !- Hour 13
  0,                                      !- Minute 13
  0.8,                                    !- Value Until Time 13
  14,                                     !- Hour 14
  0,                                      !- Minute 14
  0.9,                                    !- Value Until Time 14
  15,                                     !- Hour 15
  0,                                      !- Minute 15
  0.9,                                    !- Value Until Time 15
  16,                                     !- Hour 16
  0,                                      !- Minute 16
  0.9,                                    !- Value Until Time 16
  17,                                     !- Hour 17
  0,                                      !- Minute 17
  0.9,                                    !- Value Until Time 17
  18,                                     !- Hour 18
  0,                                      !- Minute 18
  0.5,                                    !- Value Until Time 18
  19,                                     !- Hour 19
  0,                                      !- Minute 19
  0.3,                                    !- Value Until Time 19
  20,                                     !- Hour 20
  0,                                      !- Minute 20
  0.3,                                    !- Value Until Time 20
  21,                                     !- Hour 21
  0,                                      !- Minute 21
  0.2,                                    !- Value Until Time 21
  22,                                     !- Hour 22
  0,                                      !- Minute 22
  0.2,                                    !- Value Until Time 22
  23,                                     !- Hour 23
  0,                                      !- Minute 23
  0,                                      !- Value Until Time 23
  24,                                     !- Hour 24
  0,                                      !- Minute 24
  0;                                      !- Value Until Time 24

OS:Schedule:Year,
  {84d6addd-9e03-47fb-ac84-4313bd4d18d9}, !- Handle
  Common Office Occupancy - 8 AM to 5 PM, !- Name
  {3766759c-9f3b-4e0e-b9fc-bad61fa2d7e8}, !- Schedule Type Limits Name
  12,                                     !- Month 1
  31,                                     !- Day 1
  {4d70a25f-488c-466f-a61a-22689ac415a8}; !- Week Schedule Until Date 1

OS:Schedule:Week,
  {4d70a25f-488c-466f-a61a-22689ac415a8}, !- Handle
  Common Office Occupancy - 8 AM to 5 PM, !- Name
  ,                                       !- Schedule Rendering Name
  {c5438558-3dc6-43da-95d7-0be94685ce16}, !- Sunday Schedule:Day Name
  {c5438558-3dc6-43da-95d7-0be94685ce16}, !- Monday Schedule:Day Name
  {c5438558-3dc6-43da-95d7-0be94685ce16}, !- Tuesday Schedule:Day Name
  {c5438558-3dc6-43da-95d7-0be94685ce16}, !- Wednesday Schedule:Day Name
  {c5438558-3dc6-43da-95d7-0be94685ce16}, !- Thursday Schedule:Day Name
  {c5438558-3dc6-43da-95d7-0be94685ce16}, !- Friday Schedule:Day Name
  {c5438558-3dc6-43da-95d7-0be94685ce16}, !- Saturday Schedule:Day Name
  {c5438558-3dc6-43da-95d7-0be94685ce16}, !- Holiday Schedule:Day Name
  {c5438558-3dc6-43da-95d7-0be94685ce16}, !- SummerDesignDay Schedule:Day Name
  {c5438558-3dc6-43da-95d7-0be94685ce16}, !- WinterDesignDay Schedule:Day Name
  {c5438558-3dc6-43da-95d7-0be94685ce16}, !- CustomDay1 Schedule:Day Name
  {c5438558-3dc6-43da-95d7-0be94685ce16}; !- CustomDay2 Schedule:Day Name

OS:Schedule:Day,
  {c5438558-3dc6-43da-95d7-0be94685ce16}, !- Handle
  Common Office Occupancy - 8 AM to 5 PM, !- Name
  {3766759c-9f3b-4e0e-b9fc-bad61fa2d7e8}, !- Schedule Type Limits Name
  ,                                       !- Interpolate to Timestep
  1,                                      !- Hour 1
  0,                                      !- Minute 1
  0,                                      !- Value Until Time 1
  2,                                      !- Hour 2
  0,                                      !- Minute 2
  0,                                      !- Value Until Time 2
  3,                                      !- Hour 3
  0,                                      !- Minute 3
  0,                                      !- Value Until Time 3
  4,                                      !- Hour 4
  0,                                      !- Minute 4
  0,                                      !- Value Until Time 4
  5,                                      !- Hour 5
  0,                                      !- Minute 5
  0,                                      !- Value Until Time 5
  6,                                      !- Hour 6
  0,                                      !- Minute 6
  0,                                      !- Value Until Time 6
  7,                                      !- Hour 7
  0,                                      !- Minute 7
  0,                                      !- Value Until Time 7
  8,                                      !- Hour 8
  0,                                      !- Minute 8
  0.1,                                    !- Value Until Time 8
  9,                                      !- Hour 9
  0,                                      !- Minute 9
  0.2,                                    !- Value Until Time 9
  10,                                     !- Hour 10
  0,                                      !- Minute 10
  0.95,                                   !- Value Until Time 10
  11,                                     !- Hour 11
  0,                                      !- Minute 11
  0.95,                                   !- Value Until Time 11
  12,                                     !- Hour 12
  0,                                      !- Minute 12
  0.45,                                   !- Value Until Time 12
  13,                                     !- Hour 13
  0,                                      !- Minute 13
  0.45,                                   !- Value Until Time 13
  14,                                     !- Hour 14
  0,                                      !- Minute 14
  0.95,                                   !- Value Until Time 14
  15,                                     !- Hour 15
  0,                                      !- Minute 15
  0.95,                                   !- Value Until Time 15
  16,                                     !- Hour 16
  0,                                      !- Minute 16
  0.95,                                   !- Value Until Time 16
  17,                                     !- Hour 17
  0,                                      !- Minute 17
  0.95,                                   !- Value Until Time 17
  18,                                     !- Hour 18
  0,                                      !- Minute 18
  0.95,                                   !- Value Until Time 18
  19,                                     !- Hour 19
  0,                                      !- Minute 19
  0.3,                                    !- Value Until Time 19
  20,                                     !- Hour 20
  0,                                      !- Minute 20
  0.1,                                    !- Value Until Time 20
  21,                                     !- Hour 21
  0,                                      !- Minute 21
  0.1,                                    !- Value Until Time 21
  22,                                     !- Hour 22
  0,                                      !- Minute 22
  0.1,                                    !- Value Until Time 22
  23,                                     !- Hour 23
  0,                                      !- Minute 23
  0,                                      !- Value Until Time 23
  24,                                     !- Hour 24
  0,                                      !- Minute 24
  0;                                      !- Value Until Time 24

OS:ThermalZone,
  {96de78af-368b-47e2-b035-91023d8952e0}, !- Handle
  Zone Zone 1,                            !- Name
  ,                                       !- Multiplier
  ,                                       !- Ceiling Height {m}
  ,                                       !- Volume {m3}
  ,                                       !- Floor Area {m2}
  ,                                       !- Zone Inside Convection Algorithm
  ,                                       !- Zone Outside Convection Algorithm
  ,                                       !- Zone Conditioning Equipment List Name
  {e34081f2-ee16-476e-9d0c-672991f4bd56}, !- Zone Air Inlet Port List
  {f114cb33-657c-4007-9a2a-f14f0af8bf61}, !- Zone Air Exhaust Port List
  {90a53b6e-d87c-48f4-9f6c-627a3d239ea0}, !- Zone Air Node Name
  ,                                       !- Zone Return Air Node Name
  ,                                       !- Primary Daylighting Control Name
  ,                                       !- Fraction of Zone Controlled by Primary Daylighting Control
  ,                                       !- Secondary Daylighting Control Name
  ,                                       !- Fraction of Zone Controlled by Secondary Daylighting Control
  ,                                       !- Illuminance Map Name
  {aaa6e432-be2d-4472-b52f-fe46b154d2e5}, !- Group Rendering Name
  ,                                       !- Thermostat Name
  No;                                     !- Use Ideal Air Loads

OS:Node,
  {a162baea-e908-4408-ae70-200b2db3245d}, !- Handle
  {32a342e4-956a-4104-bf19-8f8b3ee2245f}, !- Name
  {90a53b6e-d87c-48f4-9f6c-627a3d239ea0}, !- Inlet Port
  ;                                       !- Outlet Port

OS:Connection,
  {90a53b6e-d87c-48f4-9f6c-627a3d239ea0}, !- Handle
  {79b279e4-1850-4eb9-af9c-9189f8147fc7}, !- Name
  {96de78af-368b-47e2-b035-91023d8952e0}, !- Source Object
  11,                                     !- Outlet Port
  {a162baea-e908-4408-ae70-200b2db3245d}, !- Target Object
  2;                                      !- Inlet Port

OS:PortList,
  {e34081f2-ee16-476e-9d0c-672991f4bd56}, !- Handle
  {831816d7-aaf1-4349-b85d-dfda3ee6bd30}, !- Name
  {96de78af-368b-47e2-b035-91023d8952e0}; !- HVAC Component

OS:PortList,
  {f114cb33-657c-4007-9a2a-f14f0af8bf61}, !- Handle
  {d94f77a9-8b77-4f14-99e9-a1728133132e}, !- Name
  {96de78af-368b-47e2-b035-91023d8952e0}; !- HVAC Component

OS:Sizing:Zone,
  {adb693ec-b51e-432b-b359-994b83f7bc42}, !- Handle
  {96de78af-368b-47e2-b035-91023d8952e0}, !- Zone or ZoneList Name
  SupplyAirTemperature,                   !- Zone Cooling Design Supply Air Temperature Input Method
  14,                                     !- Zone Cooling Design Supply Air Temperature {C}
  11.11,                                  !- Zone Cooling Design Supply Air Temperature Difference {deltaC}
  SupplyAirTemperature,                   !- Zone Heating Design Supply Air Temperature Input Method
  40,                                     !- Zone Heating Design Supply Air Temperature {C}
  11.11,                                  !- Zone Heating Design Supply Air Temperature Difference {deltaC}
  0.0085,                                 !- Zone Cooling Design Supply Air Humidity Ratio {kg-H2O/kg-air}
  0.008,                                  !- Zone Heating Design Supply Air Humidity Ratio {kg-H2O/kg-air}
  ,                                       !- Zone Heating Sizing Factor
  ,                                       !- Zone Cooling Sizing Factor
  DesignDay,                              !- Cooling Design Air Flow Method
  ,                                       !- Cooling Design Air Flow Rate {m3/s}
  ,                                       !- Cooling Minimum Air Flow per Zone Floor Area {m3/s-m2}
  ,                                       !- Cooling Minimum Air Flow {m3/s}
  ,                                       !- Cooling Minimum Air Flow Fraction
  DesignDay,                              !- Heating Design Air Flow Method
  ,                                       !- Heating Design Air Flow Rate {m3/s}
  ,                                       !- Heating Maximum Air Flow per Zone Floor Area {m3/s-m2}
  ,                                       !- Heating Maximum Air Flow {m3/s}
  ,                                       !- Heating Maximum Air Flow Fraction
  ,                                       !- Design Zone Air Distribution Effectiveness in Cooling Mode
  ,                                       !- Design Zone Air Distribution Effectiveness in Heating Mode
  No,                                     !- Account for Dedicated Outdoor Air System
  NeutralSupplyAir,                       !- Dedicated Outdoor Air System Control Strategy
  autosize,                               !- Dedicated Outdoor Air Low Setpoint Temperature for Design {C}
  autosize;                               !- Dedicated Outdoor Air High Setpoint Temperature for Design {C}

OS:ZoneHVAC:EquipmentList,
  {168376d1-e935-4bd7-a3ed-d89e7757d3ff}, !- Handle
  {a14aac31-3aea-4e7a-a0c5-9406bc7ee177}, !- Name
  {96de78af-368b-47e2-b035-91023d8952e0}; !- Thermal Zone

OS:ThermalZone,
  {f7d1d7a8-a9d7-4098-a325-be0c58031951}, !- Handle
  Zone Zone 2,                            !- Name
  ,                                       !- Multiplier
  ,                                       !- Ceiling Height {m}
  ,                                       !- Volume {m3}
  ,                                       !- Floor Area {m2}
  ,                                       !- Zone Inside Convection Algorithm
  ,                                       !- Zone Outside Convection Algorithm
  ,                                       !- Zone Conditioning Equipment List Name
  {ec54deea-537b-40ef-a632-69a461f58b29}, !- Zone Air Inlet Port List
  {6f633d34-da02-4306-b63c-5d98c1df87d4}, !- Zone Air Exhaust Port List
  {cdee95bd-9a8c-4ce8-9506-21c30cd5451a}, !- Zone Air Node Name
  ,                                       !- Zone Return Air Node Name
  ,                                       !- Primary Daylighting Control Name
  ,                                       !- Fraction of Zone Controlled by Primary Daylighting Control
  ,                                       !- Secondary Daylighting Control Name
  ,                                       !- Fraction of Zone Controlled by Secondary Daylighting Control
  ,                                       !- Illuminance Map Name
  {5920274d-4878-45a9-8c4b-a3ca16f993fb}, !- Group Rendering Name
  ,                                       !- Thermostat Name
  No;                                     !- Use Ideal Air Loads

OS:Node,
  {8d714015-02ac-4590-9d1e-4f7405126b20}, !- Handle
  {b81b97cb-3b17-438c-b586-f2d0ab0e63b3}, !- Name
  {cdee95bd-9a8c-4ce8-9506-21c30cd5451a}, !- Inlet Port
  ;                                       !- Outlet Port

OS:Connection,
  {cdee95bd-9a8c-4ce8-9506-21c30cd5451a}, !- Handle
  {ad149779-c407-495d-bd2f-c07a41844084}, !- Name
  {f7d1d7a8-a9d7-4098-a325-be0c58031951}, !- Source Object
  11,                                     !- Outlet Port
  {8d714015-02ac-4590-9d1e-4f7405126b20}, !- Target Object
  2;                                      !- Inlet Port

OS:PortList,
  {ec54deea-537b-40ef-a632-69a461f58b29}, !- Handle
  {0db852c2-668f-413e-87a0-10f7f60cba11}, !- Name
  {f7d1d7a8-a9d7-4098-a325-be0c58031951}; !- HVAC Component

OS:PortList,
  {6f633d34-da02-4306-b63c-5d98c1df87d4}, !- Handle
  {6150c83c-652c-445c-8a5a-a11a836da937}, !- Name
  {f7d1d7a8-a9d7-4098-a325-be0c58031951}; !- HVAC Component

OS:Sizing:Zone,
  {3ceafbe1-c91b-4e91-a5ec-a7555e1c6f5d}, !- Handle
  {f7d1d7a8-a9d7-4098-a325-be0c58031951}, !- Zone or ZoneList Name
  SupplyAirTemperature,                   !- Zone Cooling Design Supply Air Temperature Input Method
  14,                                     !- Zone Cooling Design Supply Air Temperature {C}
  11.11,                                  !- Zone Cooling Design Supply Air Temperature Difference {deltaC}
  SupplyAirTemperature,                   !- Zone Heating Design Supply Air Temperature Input Method
  40,                                     !- Zone Heating Design Supply Air Temperature {C}
  11.11,                                  !- Zone Heating Design Supply Air Temperature Difference {deltaC}
  0.0085,                                 !- Zone Cooling Design Supply Air Humidity Ratio {kg-H2O/kg-air}
  0.008,                                  !- Zone Heating Design Supply Air Humidity Ratio {kg-H2O/kg-air}
  ,                                       !- Zone Heating Sizing Factor
  ,                                       !- Zone Cooling Sizing Factor
  DesignDay,                              !- Cooling Design Air Flow Method
  ,                                       !- Cooling Design Air Flow Rate {m3/s}
  ,                                       !- Cooling Minimum Air Flow per Zone Floor Area {m3/s-m2}
  ,                                       !- Cooling Minimum Air Flow {m3/s}
  ,                                       !- Cooling Minimum Air Flow Fraction
  DesignDay,                              !- Heating Design Air Flow Method
  ,                                       !- Heating Design Air Flow Rate {m3/s}
  ,                                       !- Heating Maximum Air Flow per Zone Floor Area {m3/s-m2}
  ,                                       !- Heating Maximum Air Flow {m3/s}
  ,                                       !- Heating Maximum Air Flow Fraction
  ,                                       !- Design Zone Air Distribution Effectiveness in Cooling Mode
  ,                                       !- Design Zone Air Distribution Effectiveness in Heating Mode
  No,                                     !- Account for Dedicated Outdoor Air System
  NeutralSupplyAir,                       !- Dedicated Outdoor Air System Control Strategy
  autosize,                               !- Dedicated Outdoor Air Low Setpoint Temperature for Design {C}
  autosize;                               !- Dedicated Outdoor Air High Setpoint Temperature for Design {C}

OS:ZoneHVAC:EquipmentList,
  {c50aed23-3eb8-41e1-9c2b-f96a3d2372b8}, !- Handle
  {47f78c7a-e40b-453b-bfb9-c8d4d6c6bd12}, !- Name
  {f7d1d7a8-a9d7-4098-a325-be0c58031951}; !- Thermal Zone

OS:ThermalZone,
  {43b1a935-4077-4048-b352-40d31a25ad2d}, !- Handle
  Zone Zone 3,                            !- Name
  ,                                       !- Multiplier
  ,                                       !- Ceiling Height {m}
  ,                                       !- Volume {m3}
  ,                                       !- Floor Area {m2}
  ,                                       !- Zone Inside Convection Algorithm
  ,                                       !- Zone Outside Convection Algorithm
  ,                                       !- Zone Conditioning Equipment List Name
  {48fd91b4-a28a-4623-9354-019c4d3f7971}, !- Zone Air Inlet Port List
  {d4680337-4e69-4d9e-8694-07920c348751}, !- Zone Air Exhaust Port List
  {4b650c7c-f079-4a52-9974-93a107d68c21}, !- Zone Air Node Name
  ,                                       !- Zone Return Air Node Name
  ,                                       !- Primary Daylighting Control Name
  ,                                       !- Fraction of Zone Controlled by Primary Daylighting Control
  ,                                       !- Secondary Daylighting Control Name
  ,                                       !- Fraction of Zone Controlled by Secondary Daylighting Control
  ,                                       !- Illuminance Map Name
  {79554b68-55a1-4c0b-a059-8a5f6755db58}, !- Group Rendering Name
  ,                                       !- Thermostat Name
  No;                                     !- Use Ideal Air Loads

OS:Node,
  {61b5ace6-def6-4fcb-80ec-92447cbcf645}, !- Handle
  {826f7a3b-eef1-4ca8-bace-2441235c58f5}, !- Name
  {4b650c7c-f079-4a52-9974-93a107d68c21}, !- Inlet Port
  ;                                       !- Outlet Port

OS:Connection,
  {4b650c7c-f079-4a52-9974-93a107d68c21}, !- Handle
  {2c287111-cad0-40e6-9b87-94cfafb79bb0}, !- Name
  {43b1a935-4077-4048-b352-40d31a25ad2d}, !- Source Object
  11,                                     !- Outlet Port
  {61b5ace6-def6-4fcb-80ec-92447cbcf645}, !- Target Object
  2;                                      !- Inlet Port

OS:PortList,
  {48fd91b4-a28a-4623-9354-019c4d3f7971}, !- Handle
  {9f6638a4-9b87-443d-a886-d1879238f9e3}, !- Name
  {43b1a935-4077-4048-b352-40d31a25ad2d}; !- HVAC Component

OS:PortList,
  {d4680337-4e69-4d9e-8694-07920c348751}, !- Handle
  {16900362-e52e-4664-a8a8-7d4cf774eabd}, !- Name
  {43b1a935-4077-4048-b352-40d31a25ad2d}; !- HVAC Component

OS:Sizing:Zone,
  {7f6ce148-2a07-46d3-a888-a42fa8e574ab}, !- Handle
  {43b1a935-4077-4048-b352-40d31a25ad2d}, !- Zone or ZoneList Name
  SupplyAirTemperature,                   !- Zone Cooling Design Supply Air Temperature Input Method
  14,                                     !- Zone Cooling Design Supply Air Temperature {C}
  11.11,                                  !- Zone Cooling Design Supply Air Temperature Difference {deltaC}
  SupplyAirTemperature,                   !- Zone Heating Design Supply Air Temperature Input Method
  40,                                     !- Zone Heating Design Supply Air Temperature {C}
  11.11,                                  !- Zone Heating Design Supply Air Temperature Difference {deltaC}
  0.0085,                                 !- Zone Cooling Design Supply Air Humidity Ratio {kg-H2O/kg-air}
  0.008,                                  !- Zone Heating Design Supply Air Humidity Ratio {kg-H2O/kg-air}
  ,                                       !- Zone Heating Sizing Factor
  ,                                       !- Zone Cooling Sizing Factor
  DesignDay,                              !- Cooling Design Air Flow Method
  ,                                       !- Cooling Design Air Flow Rate {m3/s}
  ,                                       !- Cooling Minimum Air Flow per Zone Floor Area {m3/s-m2}
  ,                                       !- Cooling Minimum Air Flow {m3/s}
  ,                                       !- Cooling Minimum Air Flow Fraction
  DesignDay,                              !- Heating Design Air Flow Method
  ,                                       !- Heating Design Air Flow Rate {m3/s}
  ,                                       !- Heating Maximum Air Flow per Zone Floor Area {m3/s-m2}
  ,                                       !- Heating Maximum Air Flow {m3/s}
  ,                                       !- Heating Maximum Air Flow Fraction
  ,                                       !- Design Zone Air Distribution Effectiveness in Cooling Mode
  ,                                       !- Design Zone Air Distribution Effectiveness in Heating Mode
  No,                                     !- Account for Dedicated Outdoor Air System
  NeutralSupplyAir,                       !- Dedicated Outdoor Air System Control Strategy
  autosize,                               !- Dedicated Outdoor Air Low Setpoint Temperature for Design {C}
  autosize;                               !- Dedicated Outdoor Air High Setpoint Temperature for Design {C}

OS:ZoneHVAC:EquipmentList,
  {4f3ceb84-5105-4504-8eb9-998b419e7737}, !- Handle
  {08e1c129-7aa4-468f-b2ee-a9c2bbee8d19}, !- Name
  {43b1a935-4077-4048-b352-40d31a25ad2d}; !- Thermal Zone

OS:ThermalZone,
  {39668688-4658-4435-b944-c42ed9e2684b}, !- Handle
  Zone Zone 4,                            !- Name
  ,                                       !- Multiplier
  ,                                       !- Ceiling Height {m}
  ,                                       !- Volume {m3}
  ,                                       !- Floor Area {m2}
  ,                                       !- Zone Inside Convection Algorithm
  ,                                       !- Zone Outside Convection Algorithm
  ,                                       !- Zone Conditioning Equipment List Name
  {cc6caf5c-222a-4c1f-aab1-4fcc47e09e51}, !- Zone Air Inlet Port List
  {82c06863-8ed6-4a92-bd44-f63dd9dca659}, !- Zone Air Exhaust Port List
  {ffa3c0e1-c985-4c98-a02a-b36f4db1ffa0}, !- Zone Air Node Name
  ,                                       !- Zone Return Air Node Name
  ,                                       !- Primary Daylighting Control Name
  ,                                       !- Fraction of Zone Controlled by Primary Daylighting Control
  ,                                       !- Secondary Daylighting Control Name
  ,                                       !- Fraction of Zone Controlled by Secondary Daylighting Control
  ,                                       !- Illuminance Map Name
  {df847c98-cb21-4921-acb7-f2c237d1a093}, !- Group Rendering Name
  ,                                       !- Thermostat Name
  No;                                     !- Use Ideal Air Loads

OS:Node,
  {b4b16fc9-d2e0-4dc4-aa0d-cfcdfa50c25f}, !- Handle
  {20eb2eba-7964-4a5c-a628-a380addffb97}, !- Name
  {ffa3c0e1-c985-4c98-a02a-b36f4db1ffa0}, !- Inlet Port
  ;                                       !- Outlet Port

OS:Connection,
  {ffa3c0e1-c985-4c98-a02a-b36f4db1ffa0}, !- Handle
  {6bb945ed-f989-4fae-85ce-dec693af355d}, !- Name
  {39668688-4658-4435-b944-c42ed9e2684b}, !- Source Object
  11,                                     !- Outlet Port
  {b4b16fc9-d2e0-4dc4-aa0d-cfcdfa50c25f}, !- Target Object
  2;                                      !- Inlet Port

OS:PortList,
  {cc6caf5c-222a-4c1f-aab1-4fcc47e09e51}, !- Handle
  {c7ca4acb-5f3e-4e58-90e9-0378dd0b2ce8}, !- Name