
OS:Version,
  {8648a1ed-c565-47a8-88b5-326fba627ba1}, !- Handle
  2.6.0;                                  !- Version Identifier

OS:ThermalZone,
  {6a25f2f1-d988-4eb2-bdd5-156ddd244854}, !- Handle
  Zone 1,                                 !- Name
  ,                                       !- Multiplier
  ,                                       !- Ceiling Height {m}
  ,                                       !- Volume {m3}
  ,                                       !- Floor Area {m2}
  ,                                       !- Zone Inside Convection Algorithm
  ,                                       !- Zone Outside Convection Algorithm
  ,                                       !- Zone Conditioning Equipment List Name
  {d486de5a-939a-465a-8379-f2bce0df4d30}, !- Zone Air Inlet Port List
  {baf0f604-c8e4-4afb-8d26-26cc70aa5f2d}, !- Zone Air Exhaust Port List
  {e6581242-2969-4940-8371-19b67bcd12c6}, !- Zone Air Node Name
  ,                                       !- Zone Return Air Node Name
  ,                                       !- Primary Daylighting Control Name
  ,                                       !- Fraction of Zone Controlled by Primary Daylighting Control
  ,                                       !- Secondary Daylighting Control Name
  ,                                       !- Fraction of Zone Controlled by Secondary Daylighting Control
  ,                                       !- Illuminance Map Name
  {a5f8d394-3496-425e-bd9b-0e0f58424f28}, !- Group Rendering Name
  ,                                       !- Thermostat Name
  No;                                     !- Use Ideal Air Loads

OS:Node,
  {c2a1528b-4076-4e3f-b418-6a013cf951c2}, !- Handle
  {c8ec8c36-7b38-4157-b7bd-19270999a361}, !- Name
  {e6581242-2969-4940-8371-19b67bcd12c6}, !- Inlet Port
  ;                                       !- Outlet Port

OS:Connection,
  {e6581242-2969-4940-8371-19b67bcd12c6}, !- Handle
  {df8f2bb5-b6fd-4faa-a644-dc766a118c32}, !- Name
  {6a25f2f1-d988-4eb2-bdd5-156ddd244854}, !- Source Object
  11,                                     !- Outlet Port
  {c2a1528b-4076-4e3f-b418-6a013cf951c2}, !- Target Object
  2;                                      !- Inlet Port

OS:PortList,
  {d486de5a-939a-465a-8379-f2bce0df4d30}, !- Handle
  {129f7404-c1e6-4e8a-8d2a-75200fd205aa}, !- Name
  {6a25f2f1-d988-4eb2-bdd5-156ddd244854}; !- HVAC Component

OS:PortList,
  {baf0f604-c8e4-4afb-8d26-26cc70aa5f2d}, !- Handle
  {3c97873a-c978-4b3e-a7d9-70c502413de1}, !- Name
  {6a25f2f1-d988-4eb2-bdd5-156ddd244854}; !- HVAC Component

OS:Sizing:Zone,
  {d2ceb519-9c5b-45a7-87ef-69777740925d}, !- Handle
  {6a25f2f1-d988-4eb2-bdd5-156ddd244854}, !- Zone or ZoneList Name
  SupplyAirTemperature,                   !- Zone Cooling Design Supply Air Temperature Input Method
  14,                                     !- Zone Cooling Design Supply Air Temperature {C}
  11.11,                                  !- Zone Cooling Design Supply Air Temperature Difference {deltaC}
  SupplyAirTemperature,                   !- Zone Heating Design Supply Air Temperature Input Method
  40,                                     !- Zone Heating Design Supply Air Temperature {C}
  11.11,                                  !- Zone Heating Design Supply Air Temperature Difference {deltaC}
  0.0085,                                 !- Zone Cooling Design Supply Air Humidity Ratio {kg-H2O/kg-air}
  0.008,                                  !- Zone Heating Design Supply Air Humidity Ratio {kg-H2O/kg-air}
  ,                                       !- Zone Heating Sizing Factor
  ,                                       !- Zone Cooling Sizing Factor
  DesignDay,                              !- Cooling Design Air Flow Method
  ,                                       !- Cooling Design Air Flow Rate {m3/s}
  ,                                       !- Cooling Minimum Air Flow per Zone Floor Area {m3/s-m2}
  ,                                       !- Cooling Minimum Air Flow {m3/s}
  ,                                       !- Cooling Minimum Air Flow Fraction
  DesignDay,                              !- Heating Design Air Flow Method
  ,                                       !- Heating Design Air Flow Rate {m3/s}
  ,                                       !- Heating Maximum Air Flow per Zone Floor Area {m3/s-m2}
  ,                                       !- Heating Maximum Air Flow {m3/s}
  ,                                       !- Heating Maximum Air Flow Fraction
  ,                                       !- Design Zone Air Distribution Effectiveness in Cooling Mode
  ,                                       !- Design Zone Air Distribution Effectiveness in Heating Mode
  No,                                     !- Account for Dedicated Outdoor Air System
  NeutralSupplyAir,                       !- Dedicated Outdoor Air System Control Strategy
  autosize,                               !- Dedicated Outdoor Air Low Setpoint Temperature for Design {C}
  autosize;                               !- Dedicated Outdoor Air High Setpoint Temperature for Design {C}

OS:ZoneHVAC:EquipmentList,
  {171c64fe-698c-4352-a04e-49b0ffed5524}, !- Handle
  {b74ff61e-8fb9-4f4f-9fcf-4f69f0fcdf4b}, !- Name
  {6a25f2f1-d988-4eb2-bdd5-156ddd244854}; !- Thermal Zone

OS:ThermalZone,
  {5dd009f3-d40a-4162-88fc-768f895d00dd}, !- Handle
  Zone 2,                                 !- Name
  ,                                       !- Multiplier
  ,                                       !- Ceiling Height {m}
  ,                                       !- Volume {m3}
  ,                                       !- Floor Area {m2}
  ,                                       !- Zone Inside Convection Algorithm
  ,                                       !- Zone Outside Convection Algorithm
  ,                                       !- Zone Conditioning Equipment List Name
  {0e63e696-3512-4a32-9fdb-551392781849}, !- Zone Air Inlet Port List
  {73c870d8-1798-4ed4-b66b-ee3e3b99dabe}, !- Zone Air Exhaust Port List
  {715a6050-deb5-406e-ada3-6db6c948baec}, !- Zone Air Node Name
  ,                                       !- Zone Return Air Node Name
  ,                                       !- Primary Daylighting Control Name
  ,                                       !- Fraction of Zone Controlled by Primary Daylighting Control
  ,                                       !- Secondary Daylighting Control Name
  ,                                       !- Fraction of Zone Controlled by Secondary Daylighting Control
  ,                                       !- Illuminance Map Name
  {cc2f1633-7250-430c-8232-51640adbac5b}, !- Group Rendering Name
  ,                                       !- Thermostat Name
  No;                                     !- Use Ideal Air Loads

OS:Node,
  {34bc16c9-3c5b-427c-9d18-b917afb8b2f6}, !- Handle
  {7bee0cdc-4b5a-481f-bfb4-9535bb63f32d}, !- Name
  {715a6050-deb5-406e-ada3-6db6c948baec}, !- Inlet Port
  ;                                       !- Outlet Port

OS:Connection,
  {715a6050-deb5-406e-ada3-6db6c948baec}, !- Handle
  {628c04ed-663b-4edc-91e1-ea0cd58566b9}, !- Name
  {5dd009f3-d40a-4162-88fc-768f895d00dd}, !- Source Object
  11,                                     !- Outlet Port
  {34bc16c9-3c5b-427c-9d18-b917afb8b2f6}, !- Target Object
  2;                                      !- Inlet Port

OS:PortList,
  {0e63e696-3512-4a32-9fdb-551392781849}, !- Handle
  {fb11c5ea-2cfd-4948-aba3-ec4f5d5fa33f}, !- Name
  {5dd009f3-d40a-4162-88fc-768f895d00dd}; !- HVAC Component

OS:PortList,
  {73c870d8-1798-4ed4-b66b-ee3e3b99dabe}, !- Handle
  {bf0fd0c6-0f74-4d7f-9096-b9d4968c1c9e}, !- Name
  {5dd009f3-d40a-4162-88fc-768f895d00dd}; !- HVAC Component

OS:Sizing:Zone,
  {6ba4f32f-933a-4bba-a78a-13b429e45fd2}, !- Handle
  {5dd009f3-d40a-4162-88fc-768f895d00dd}, !- Zone or ZoneList Name
  SupplyAirTemperature,                   !- Zone Cooling Design Supply Air Temperature Input Method
  14,                                     !- Zone Cooling Design Supply Air Temperature {C}
  11.11,                                  !- Zone Cooling Design Supply Air Temperature Difference {deltaC}
  SupplyAirTemperature,                   !- Zone Heating Design Supply Air Temperature Input Method
  40,                                     !- Zone Heating Design Supply Air Temperature {C}
  11.11,                                  !- Zone Heating Design Supply Air Temperature Difference {deltaC}
  0.0085,                                 !- Zone Cooling Design Supply Air Humidity Ratio {kg-H2O/kg-air}
  0.008,                                  !- Zone Heating Design Supply Air Humidity Ratio {kg-H2O/kg-air}
  ,                                       !- Zone Heating Sizing Factor
  ,                                       !- Zone Cooling Sizing Factor
  DesignDay,                              !- Cooling Design Air Flow Method
  ,                                       !- Cooling Design Air Flow Rate {m3/s}
  ,                                       !- Cooling Minimum Air Flow per Zone Floor Area {m3/s-m2}
  ,                                       !- Cooling Minimum Air Flow {m3/s}
  ,                                       !- Cooling Minimum Air Flow Fraction
  DesignDay,                              !- Heating Design Air Flow Method
  ,                                       !- Heating Design Air Flow Rate {m3/s}
  ,                                       !- Heating Maximum Air Flow per Zone Floor Area {m3/s-m2}
  ,                                       !- Heating Maximum Air Flow {m3/s}
  ,                                       !- Heating Maximum Air Flow Fraction
  ,                                       !- Design Zone Air Distribution Effectiveness in Cooling Mode
  ,                                       !- Design Zone Air Distribution Effectiveness in Heating Mode
  No,                                     !- Account for Dedicated Outdoor Air System
  NeutralSupplyAir,                       !- Dedicated Outdoor Air System Control Strategy
  autosize,                               !- Dedicated Outdoor Air Low Setpoint Temperature for Design {C}
  autosize;                               !- Dedicated Outdoor Air High Setpoint Temperature for Design {C}

OS:ZoneHVAC:EquipmentList,
  {297e2143-f4a4-4b77-99db-ee42d8989405}, !- Handle
  {7e295c10-b249-454e-a5cb-0b470b120be4}, !- Name
  {5dd009f3-d40a-4162-88fc-768f895d00dd}; !- Thermal Zone

OS:ThermalZone,
  {24c0daa9-926f-4385-8616-08b665a88aec}, !- Handle
  Zone 3,                                 !- Name
  ,                                       !- Multiplier
  ,                                       !- Ceiling Height {m}
  ,                                       !- Volume {m3}
  ,                                       !- Floor Area {m2}
  ,                                       !- Zone Inside Convection Algorithm
  ,                                       !- Zone Outside Convection Algorithm
  ,                                       !- Zone Conditioning Equipment List Name
  {82c5b807-e1db-41df-80bf-6f1dbb958888}, !- Zone Air Inlet Port List
  {10f5a0d2-2bf6-4faf-bc18-fa633e20a57b}, !- Zone Air Exhaust Port List
  {377bb47e-8141-444c-be99-b856f37d202a}, !- Zone Air Node Name
  ,                                       !- Zone Return Air Node Name
  ,                                       !- Primary Daylighting Control Name
  ,                                       !- Fraction of Zone Controlled by Primary Daylighting Control
  ,                                       !- Secondary Daylighting Control Name
  ,                                       !- Fraction of Zone Controlled by Secondary Daylighting Control
  ,                                       !- Illuminance Map Name
  {266afee9-11d3-4e3f-b61a-bd9ced9e000c}, !- Group Rendering Name
  ,                                       !- Thermostat Name
  No;                                     !- Use Ideal Air Loads

OS:Node,
  {a2fecb35-771d-4b93-98ea-a3f7a4cee264}, !- Handle
  {c984d955-6500-4eea-8070-729b4328ec35}, !- Name
  {377bb47e-8141-444c-be99-b856f37d202a}, !- Inlet Port
  ;                                       !- Outlet Port

OS:Connection,
  {377bb47e-8141-444c-be99-b856f37d202a}, !- Handle
  {e76b538c-6faf-4d41-a62a-739cae7a02eb}, !- Name
  {24c0daa9-926f-4385-8616-08b665a88aec}, !- Source Object
  11,                                     !- Outlet Port
  {a2fecb35-771d-4b93-98ea-a3f7a4cee264}, !- Target Object
  2;                                      !- Inlet Port

OS:PortList,
  {82c5b807-e1db-41df-80bf-6f1dbb958888}, !- Handle
  {d1a5e3e3-cd5e-486f-af52-2f6c8db4911e}, !- Name
  {24c0daa9-926f-4385-8616-08b665a88aec}; !- HVAC Component

OS:PortList,
  {10f5a0d2-2bf6-4faf-bc18-fa633e20a57b}, !- Handle
  {5c750e04-d35c-49ef-9264-3ddb9467b4d1}, !- Name
  {24c0daa9-926f-4385-8616-08b665a88aec}; !- HVAC Component

OS:Sizing:Zone,
  {f70fb3bc-2bad-46b6-b4e8-d067d9993e6e}, !- Handle
  {24c0daa9-926f-4385-8616-08b665a88aec}, !- Zone or ZoneList Name
  SupplyAirTemperature,                   !- Zone Cooling Design Supply Air Temperature Input Method
  14,                                     !- Zone Cooling Design Supply Air Temperature {C}
  11.11,                                  !- Zone Cooling Design Supply Air Temperature Difference {deltaC}
  SupplyAirTemperature,                   !- Zone Heating Design Supply Air Temperature Input Method
  40,                                     !- Zone Heating Design Supply Air Temperature {C}
  11.11,                                  !- Zone Heating Design Supply Air Temperature Difference {deltaC}
  0.0085,                                 !- Zone Cooling Design Supply Air Humidity Ratio {kg-H2O/kg-air}
  0.008,                                  !- Zone Heating Design Supply Air Humidity Ratio {kg-H2O/kg-air}
  ,                                       !- Zone Heating Sizing Factor
  ,                                       !- Zone Cooling Sizing Factor
  DesignDay,                              !- Cooling Design Air Flow Method
  ,                                       !- Cooling Design Air Flow Rate {m3/s}
  ,                                       !- Cooling Minimum Air Flow per Zone Floor Area {m3/s-m2}
  ,                                       !- Cooling Minimum Air Flow {m3/s}
  ,                                       !- Cooling Minimum Air Flow Fraction
  DesignDay,                              !- Heating Design Air Flow Method
  ,                                       !- Heating Design Air Flow Rate {m3/s}
  ,                                       !- Heating Maximum Air Flow per Zone Floor Area {m3/s-m2}
  ,                                       !- Heating Maximum Air Flow {m3/s}
  ,                                       !- Heating Maximum Air Flow Fraction
  ,                                       !- Design Zone Air Distribution Effectiveness in Cooling Mode
  ,                                       !- Design Zone Air Distribution Effectiveness in Heating Mode
  No,                                     !- Account for Dedicated Outdoor Air System
  NeutralSupplyAir,                       !- Dedicated Outdoor Air System Control Strategy
  autosize,                               !- Dedicated Outdoor Air Low Setpoint Temperature for Design {C}
  autosize;                               !- Dedicated Outdoor Air High Setpoint Temperature for Design {C}

OS:ZoneHVAC:EquipmentList,
  {4fbe5cd9-247e-49c0-b69e-a8bf1f04316f}, !- Handle
  {2cd88041-b383-487e-b79f-549a38d8347b}, !- Name
  {24c0daa9-926f-4385-8616-08b665a88aec}; !- Thermal Zone

OS:ThermalZone,
  {be371b6b-80fa-43a3-a19f-21ee465fe2ca}, !- Handle
  Zone 4,                                 !- Name
  ,                                       !- Multiplier
  ,                                       !- Ceiling Height {m}
  ,                                       !- Volume {m3}
  ,                                       !- Floor Area {m2}
  ,                                       !- Zone Inside Convection Algorithm
  ,                                       !- Zone Outside Convection Algorithm
  ,                                       !- Zone Conditioning Equipment List Name
  {5b15e1f3-67be-42b3-aa57-3fee30a0d31a}, !- Zone Air Inlet Port List
  {1b30c637-35bc-4263-b35e-db3c10f6472a}, !- Zone Air Exhaust Port List
  {d98b4417-2b7e-433e-aa7d-1c5378cb1ced}, !- Zone Air Node Name
  ,                                       !- Zone Return Air Node Name
  ,                                       !- Primary Daylighting Control Name
  ,                                       !- Fraction of Zone Controlled by Primary Daylighting Control
  ,                                       !- Secondary Daylighting Control Name
  ,                                       !- Fraction of Zone Controlled by Secondary Daylighting Control
  ,                                       !- Illuminance Map Name
  {a8575ec5-6afd-45e6-8c73-04d96a016861}, !- Group Rendering Name
  ,                                       !- Thermostat Name
  No;                                     !- Use Ideal Air Loads

OS:Node,
  {34452aeb-27f4-40c2-918e-9da9b06be00f}, !- Handle
  {f6d619b5-0adb-4d3a-911b-66742ee29a10}, !- Name
  {d98b4417-2b7e-433e-aa7d-1c5378cb1ced}, !- Inlet Port
  ;                                       !- Outlet Port

OS:Connection,
  {d98b4417-2b7e-433e-aa7d-1c5378cb1ced}, !- Handle
  {6733b4e8-91b0-4427-8af7-2ff01749a46b}, !- Name
  {be371b6b-80fa-43a3-a19f-21ee465fe2ca}, !- Source Object
  11,                                     !- Outlet Port
  {34452aeb-27f4-40c2-918e-9da9b06be00f}, !- Target Object
  2;                                      !- Inlet Port

OS:PortList,
  {5b15e1f3-67be-42b3-aa57-3fee30a0d31a}, !- Handle
  {ed8de5cb-8b87-45b4-99ec-4971631f7ddd}, !- Name
  {be371b6b-80fa-43a3-a19f-21ee465fe2ca}; !- HVAC Component

OS:PortList,
  {1b30c637-35bc-4263-b35e-db3c10f6472a}, !- Handle
  {c9209491-70d7-4773-b844-edb75f5a2ef5}, !- Name
  {be371b6b-80fa-43a3-a19f-21ee465fe2ca}; !- HVAC Component

OS:Sizing:Zone,
  {ea8a20d0-710e-46f5-a0cf-85a57baaf65d}, !- Handle
  {be371b6b-80fa-43a3-a19f-21ee465fe2ca}, !- Zone or ZoneList Name
  SupplyAirTemperature,                   !- Zone Cooling Design Supply Air Temperature Input Method
  14,                                     !- Zone Cooling Design Supply Air Temperature {C}
  11.11,                                  !- Zone Cooling Design Supply Air Temperature Difference {deltaC}
  SupplyAirTemperature,                   !- Zone Heating Design Supply Air Temperature Input Method
  40,                                     !- Zone Heating Design Supply Air Temperature {C}
  11.11,                                  !- Zone Heating Design Supply Air Temperature Difference {deltaC}
  0.0085,                                 !- Zone Cooling Design Supply Air Humidity Ratio {kg-H2O/kg-air}
  0.008,                                  !- Zone Heating Design Supply Air Humidity Ratio {kg-H2O/kg-air}
  ,                                       !- Zone Heating Sizing Factor
  ,                                       !- Zone Cooling Sizing Factor
  DesignDay,                              !- Cooling Design Air Flow Method
  ,                                       !- Cooling Design Air Flow Rate {m3/s}
  ,                                       !- Cooling Minimum Air Flow per Zone Floor Area {m3/s-m2}
  ,                                       !- Cooling Minimum Air Flow {m3/s}
  ,                                       !- Cooling Minimum Air Flow Fraction
  DesignDay,                              !- Heating Design Air Flow Method
  ,                                       !- Heating Design Air Flow Rate {m3/s}
  ,                                       !- Heating Maximum Air Flow per Zone Floor Area {m3/s-m2}
  ,                                       !- Heating Maximum Air Flow {m3/s}
  ,                                       !- Heating Maximum Air Flow Fraction
  ,                                       !- Design Zone Air Distribution Effectiveness in Cooling Mode
  ,                                       !- Design Zone Air Distribution Effectiveness in Heating Mode
  No,                                     !- Account for Dedicated Outdoor Air System
  NeutralSupplyAir,                       !- Dedicated Outdoor Air System Control Strategy
  autosize,                               !- Dedicated Outdoor Air Low Setpoint Temperature for Design {C}
  autosize;                               !- Dedicated Outdoor Air High Setpoint Temperature for Design {C}

OS:ZoneHVAC:EquipmentList,
  {26d5c003-cd99-4b8e-a555-2d781954fad6}, !- Handle
  {47a9e409-848a-41bb-8691-2f91f1b7cecc}, !- Name
  {be371b6b-80fa-43a3-a19f-21ee465fe2ca}; !- Thermal Zone

OS:ThermalZone,
  {519b2b85-2af1-47d0-bf89-928b6703887b}, !- Handle
  Zone 5,                                 !- Name
  ,                                       !- Multiplier
  ,                                       !- Ceiling Height {m}
  ,                                       !- Volume {m3}
  ,                                       !- Floor Area {m2}
  ,                                       !- Zone Inside Convection Algorithm
  ,                                       !- Zone Outside Convection Algorithm
  ,                                       !- Zone Conditioning Equipment List Name
  {6a602c93-ae62-4eff-b4dc-a6d78380679d}, !- Zone Air Inlet Port List
  {cc49f531-1433-4ae5-8d40-c1e17058b355}, !- Zone Air Exhaust Port List
  {0673904f-8f46-48bd-abdb-f4c8a0c5de03}, !- Zone Air Node Name
  ,                                       !- Zone Return Air Node Name
  ,                                       !- Primary Daylighting Control Name
  ,                                       !- Fraction of Zone Controlled by Primary Daylighting Control
  ,                                       !- Secondary Daylighting Control Name
  ,                                       !- Fraction of Zone Controlled by Secondary Daylighting Control
  ,                                       !- Illuminance Map Name
  {7e7a3cc1-0e11-4191-a10e-65935a3b08d5}, !- Group Rendering Name
  ,                                       !- Thermostat Name
  No;                                     !- Use Ideal Air Loads

OS:Node,
  {3e5ec74c-3ec2-4508-bbc7-ee329834745e}, !- Handle
  {c11cc8db-2be2-435f-afd8-70c41dcd4bb3}, !- Name
  {0673904f-8f46-48bd-abdb-f4c8a0c5de03}, !- Inlet Port
  ;                                       !- Outlet Port

OS:Connection,
  {0673904f-8f46-48bd-abdb-f4c8a0c5de03}, !- Handle
  {438b2859-1a02-400a-9b9f-1d56205b2f84}, !- Name
  {519b2b85-2af1-47d0-bf89-928b6703887b}, !- Source Object
  11,                                     !- Outlet Port
  {3e5ec74c-3ec2-4508-bbc7-ee329834745e}, !- Target Object
  2;                                      !- Inlet Port

OS:PortList,
  {6a602c93-ae62-4eff-b4dc-a6d78380679d}, !- Handle
  {da348412-5147-43ea-b248-87f97c890ed4}, !- Name
  {519b2b85-2af1-47d0-bf89-928b6703887b}; !- HVAC Component

OS:PortList,
  {cc49f531-1433-4ae5-8d40-c1e17058b355}, !- Handle
  {a921b341-32e2-4863-ad5b-ea0361e67633}, !- Name
  {519b2b85-2af1-47d0-bf89-928b6703887b}; !- HVAC Component

OS:Sizing:Zone,
  {9b318a0c-6184-48bb-9699-da1d2ceecfb9}, !- Handle
  {519b2b85-2af1-47d0-bf89-928b6703887b}, !- Zone or ZoneList Name
  SupplyAirTemperature,                   !- Zone Cooling Design Supply Air Temperature Input Method
  14,                                     !- Zone Cooling Design Supply Air Temperature {C}
  11.11,                                  !- Zone Cooling Design Supply Air Temperature Difference {deltaC}
  SupplyAirTemperature,                   !- Zone Heating Design Supply Air Temperature Input Method
  40,                                     !- Zone Heating Design Supply Air Temperature {C}
  11.11,                                  !- Zone Heating Design Supply Air Temperature Difference {deltaC}
  0.0085,                                 !- Zone Cooling Design Supply Air Humidity Ratio {kg-H2O/kg-air}
  0.008,                                  !- Zone Heating Design Supply Air Humidity Ratio {kg-H2O/kg-air}
  ,                                       !- Zone Heating Sizing Factor
  ,                                       !- Zone Cooling Sizing Factor
  DesignDay,                              !- Cooling Design Air Flow Method
  ,                                       !- Cooling Design Air Flow Rate {m3/s}
  ,                                       !- Cooling Minimum Air Flow per Zone Floor Area {m3/s-m2}
  ,                                       !- Cooling Minimum Air Flow {m3/s}
  ,                                       !- Cooling Minimum Air Flow Fraction
  DesignDay,                              !- Heating Design Air Flow Method
  ,                                       !- Heating Design Air Flow Rate {m3/s}
  ,                                       !- Heating Maximum Air Flow per Zone Floor Area {m3/s-m2}
  ,                                       !- Heating Maximum Air Flow {m3/s}
  ,                                       !- Heating Maximum Air Flow Fraction
  ,                                       !- Design Zone Air Distribution Effectiveness in Cooling Mode
  ,                                       !- Design Zone Air Distribution Effectiveness in Heating Mode
  No,                                     !- Account for Dedicated Outdoor Air System
  NeutralSupplyAir,                       !- Dedicated Outdoor Air System Control Strategy
  autosize,                               !- Dedicated Outdoor Air Low Setpoint Temperature for Design {C}
  autosize;                               !- Dedicated Outdoor Air High Setpoint Temperature for Design {C}

OS:ZoneHVAC:EquipmentList,
  {b3869b3f-cf7f-4dbf-b8b3-cb6b916a0858}, !- Handle
  {dfc1145e-06ed-4236-9318-f388df18b3d3}, !- Name
  {519b2b85-2af1-47d0-bf89-928b6703887b}; !- Thermal Zone

OS:Facility,
  {5a35ad44-0cb2-4695-a3cc-fde9a745e666}; !- Handle

OS:Building,
  {a29a3532-b006-4931-94d2-1dfb70a0d6cd}, !- Handle
  bldg-1,                                 !- Name
  ,                                       !- Building Sector Type
  ,                                       !- North Axis {deg}
  ,                                       !- Nominal Floor to Floor Height {m}
  ,                                       !- Space Type Name
  ,                                       !- Default Construction Set Name
  ,                                       !- Default Schedule Set Name
  ,                                       !- Standards Number of Stories
  ,                                       !- Standards Number of Above Ground Stories
  ,                                       !- Standards Building Type
  ,                                       !- Standards Number of Living Units
  ,                                       !- Relocatable
  ;                                       !- Nominal Floor to Ceiling Height {m}

OS:BuildingStory,
  {88a216b5-a634-4cee-ac9c-557d7177fe0d}, !- Handle
  Level 1,                                !- Name
  ,                                       !- Nominal Z Coordinate {m}
  ,                                       !- Nominal Floor to Floor Height {m}
  ,                                       !- Default Construction Set Name
  ,                                       !- Default Schedule Set Name
  {6ec8e7f7-1eb5-48c4-997b-1df6cd0d521a}; !- Group Rendering Name

OS:Space,
  {13ff5417-85c1-411d-908c-412120b23b7b}, !- Handle
  101 Space,                              !- Name
  {6a33b33e-77e1-42fe-a27d-b1169603455f}, !- Space Type Name
  ,                                       !- Default Construction Set Name
  ,                                       !- Default Schedule Set Name
  ,                                       !- Direction of Relative North {deg}
  ,                                       !- X Origin {m}
  ,                                       !- Y Origin {m}
  ,                                       !- Z Origin {m}
  {88a216b5-a634-4cee-ac9c-557d7177fe0d}, !- Building Story Name
  {6a25f2f1-d988-4eb2-bdd5-156ddd244854}; !- Thermal Zone Name

OS:SpaceType,
  {6a33b33e-77e1-42fe-a27d-b1169603455f}, !- Handle
  OfficeEnclosed,                         !- Name
  ,                                       !- Default Construction Set Name
  ,                                       !- Default Schedule Set Name
  {e95a2450-cb86-4b45-99e0-949253a64314}; !- Group Rendering Name

OS:Space,
  {453fd38d-fd40-4650-8065-3ab27115bf2b}, !- Handle
  102 Space,                              !- Name
  {6a33b33e-77e1-42fe-a27d-b1169603455f}, !- Space Type Name
  ,                                       !- Default Construction Set Name
  ,                                       !- Default Schedule Set Name
  ,                                       !- Direction of Relative North {deg}
  ,                                       !- X Origin {m}
  ,                                       !- Y Origin {m}
  ,                                       !- Z Origin {m}
  {88a216b5-a634-4cee-ac9c-557d7177fe0d}, !- Building Story Name
  {5dd009f3-d40a-4162-88fc-768f895d00dd}; !- Thermal Zone Name

OS:Space,
  {c7c1e831-4988-4610-a3cc-e870db8d5171}, !- Handle
  103 Space,                              !- Name
  {6a33b33e-77e1-42fe-a27d-b1169603455f}, !- Space Type Name
  ,                                       !- Default Construction Set Name
  ,                                       !- Default Schedule Set Name
  ,                                       !- Direction of Relative North {deg}
  ,                                       !- X Origin {m}
  ,                                       !- Y Origin {m}
  ,                                       !- Z Origin {m}
  {88a216b5-a634-4cee-ac9c-557d7177fe0d}, !- Building Story Name
  {24c0daa9-926f-4385-8616-08b665a88aec}; !- Thermal Zone Name

OS:Space,
  {da127c77-cda3-4b2b-beb7-93f411e1e7c8}, !- Handle
  104 Space,                              !- Name
  {6a33b33e-77e1-42fe-a27d-b1169603455f}, !- Space Type Name