
OS:Version,
  {e674904c-d654-4591-a35b-05e193f571f7}, !- Handle
  2.5.0;                                  !- Version Identifier

OS:Material,
  {48c92d78-f956-4d0c-bcae-03ae5a9b3a02}, !- Handle
  Brick- Common: 0.092075 m,              !- Name
  MediumRough,                            !- Roughness
  0.092075,                               !- Thickness {m}
  0.54,                                   !- Conductivity {W/m-K}
  1550,                                   !- Density {kg/m3}
  840;                                    !- Specific Heat {J/kg-K}

OS:Material,
  {ab5e7577-8421-46b6-a310-e2e1823c6773}, !- Handle
  Air: 0.0762 m,                          !- Name
  MediumRough,                            !- Roughness
  0.0762,                                 !- Thickness {m}
  0.025,                                  !- Conductivity {W/m-K}
  1.2,                                    !- Density {kg/m3}
  1003.5;                                 !- Specific Heat {J/kg-K}

OS:Material,
  {1a529049-7530-4900-8b41-db46176721cd}, !- Handle
  Rigid insulation: 0.0762 m,             !- Name
  MediumRough,                            !- Roughness
  0.0762,                                 !- Thickness {m}
  0.035,                                  !- Conductivity {W/m-K}
  23,                                     !- Density {kg/m3}
  1470;                                   !- Specific Heat {J/kg-K}

OS:Material,
  {33407061-8cd0-4261-a4f2-a354009836ad}, !- Handle
  Concrete Masonry Units: 0.193675 m,     !- Name
  MediumRough,                            !- Roughness
  0.193675,                               !- Thickness {m}
  1.3,                                    !- Conductivity {W/m-K}
  1800,                                   !- Density {kg/m3}
  840;                                    !- Specific Heat {J/kg-K}

OS:Material,
  {961ebe90-9123-4874-98b3-f7376c50d209}, !- Handle
  Metal Furring: 0.041275 m,              !- Name
  MediumRough,                            !- Roughness
  0.041275,                               !- Thickness {m}
  45,                                     !- Conductivity {W/m-K}
  7850,                                   !- Density {kg/m3}
  480;                                    !- Specific Heat {J/kg-K}

OS:Material,
  {7f59f24b-beb8-4be9-bd45-223d590d1913}, !- Handle
  Gypsum Wall Board: 0.015875 m,          !- Name
  MediumRough,                            !- Roughness
  0.015875,                               !- Thickness {m}
  0.65,                                   !- Conductivity {W/m-K}
  1100,                                   !- Density {kg/m3}
  840;                                    !- Specific Heat {J/kg-K}

OS:Material,
  {df870d31-7840-4c71-8cea-68427d7e4f8b}, !- Handle
  Structure- Wood Joist/Rafter Layer: 0.301625 m, !- Name
  MediumRough,                            !- Roughness
  0.301625,                               !- Thickness {m}
  0.025,                                  !- Conductivity {W/m-K}
  1.2,                                    !- Density {kg/m3}
  1003.5;                                 !- Specific Heat {J/kg-K}

OS:Material,
  {fec07056-edce-496a-b447-450225af293a}, !- Handle
  Plywood- Sheathing: 0.01905 m,          !- Name
  MediumRough,                            !- Roughness
  0.01905,                                !- Thickness {m}
  0.106,                                  !- Conductivity {W/m-K}
  552,                                    !- Density {kg/m3}
  1420;                                   !- Specific Heat {J/kg-K}

OS:Material,
  {8fe01c5c-a37d-44dd-b07b-19bbdde7a9e3}, !- Handle
  Metal Stud Layer: 0.0635 m,             !- Name
  MediumRough,                            !- Roughness
  0.0635,                                 !- Thickness {m}
  0.025,                                  !- Conductivity {W/m-K}
  1.2,                                    !- Density {kg/m3}
  1003.5;                                 !- Specific Heat {J/kg-K}

OS:Material,
  {4cacc186-7fb3-4b61-8fe9-93fd0012aa56}, !- Handle
  Metal surface,                          !- Name
  MediumRough,                            !- Roughness
  0.0008,                                 !- Thickness {m}
  45.28,                                  !- Conductivity {W/m-K}
  7824,                                   !- Density {kg/m3}
  500;                                    !- Specific Heat {J/kg-K}

OS:Material,
  {221e2522-c984-4c12-8f8b-6439a3f35b87}, !- Handle
  1 1/2 in wood,                          !- Name
  MediumRough,                            !- Roughness
  0.0376,                                 !- Thickness {m}
  0.15,                                   !- Conductivity {W/m-K}
  608,                                    !- Density {kg/m3}
  1630;                                   !- Specific Heat {J/kg-K}

OS:Material,
  {551ab3be-47dd-427c-a4eb-ee80e60f093f}, !- Handle
  Asphalt Shingle: 0.00635 m,             !- Name
  MediumRough,                            !- Roughness
  0.00635,                                !- Thickness {m}
  0.5,                                    !- Conductivity {W/m-K}
  1700,                                   !- Density {kg/m3}
  1000;                                   !- Specific Heat {J/kg-K}

OS:Material,
  {f92b1c50-6fb0-4c3c-b4c5-781698c53f1c}, !- Handle
  Plywood- Sheathing: 0.015875 m,         !- Name
  MediumRough,                            !- Roughness
  0.015875,                               !- Thickness {m}
  0.106,                                  !- Conductivity {W/m-K}
  552,                                    !- Density {kg/m3}
  1420;                                   !- Specific Heat {J/kg-K}

OS:Material,
  {6b8ca11a-d9b7-467c-a11d-d0c02c50b02c}, !- Handle
  Structure- Wood Joist/Rafter Layer- Batt Insulation: 0.1905 m, !- Name
  MediumRough,                            !- Roughness
  0.1905,                                 !- Thickness {m}
  0.019,                                  !- Conductivity {W/m-K}
  32,                                     !- Density {kg/m3}
  920;                                    !- Specific Heat {J/kg-K}

OS:Construction,
  {b3eb1e15-c920-4b2b-8bcf-203fac01c5ab}, !- Handle
  Basic Wall: Exterior - Brick on CMU,    !- Name
  {b5d219ee-3356-4879-b741-8ba8a91c59a3}, !- Surface Rendering Name
  {48c92d78-f956-4d0c-bcae-03ae5a9b3a02}, !- Layer 1
  {ab5e7577-8421-46b6-a310-e2e1823c6773}, !- Layer 2
  {1a529049-7530-4900-8b41-db46176721cd}, !- Layer 3
  {33407061-8cd0-4261-a4f2-a354009836ad}, !- Layer 4
  {961ebe90-9123-4874-98b3-f7376c50d209}, !- Layer 5
  {7f59f24b-beb8-4be9-bd45-223d590d1913}; !- Layer 6

OS:Construction,
  {44d45aab-d912-4ddf-8f0a-ff5dbba9e783}, !- Handle
  Floor: Wood Truss  Joist 12" - Carpet Finish, !- Name
  {f3c35f19-4534-4cf2-a66b-507efd37ed73}, !- Surface Rendering Name
  {df870d31-7840-4c71-8cea-68427d7e4f8b}, !- Layer 1
  {fec07056-edce-496a-b447-450225af293a}; !- Layer 2

OS:Construction,
  {96c50680-b6a2-4f09-b9be-cc28574d894e}, !- Handle
  Basic Wall: Interior - 5" Partition (2-hr), !- Name
  {0a3fbff7-90d9-4ad8-9d5d-c0f014e8c6ab}, !- Surface Rendering Name
  {7f59f24b-beb8-4be9-bd45-223d590d1913}, !- Layer 1
  {7f59f24b-beb8-4be9-bd45-223d590d1913}, !- Layer 2
  {8fe01c5c-a37d-44dd-b07b-19bbdde7a9e3}, !- Layer 3
  {7f59f24b-beb8-4be9-bd45-223d590d1913}, !- Layer 4
  {7f59f24b-beb8-4be9-bd45-223d590d1913}; !- Layer 5

OS:Construction,
  {3a152ef9-e2ec-46f8-af8f-02d0fbb33cbc}, !- Handle
  Metal,                                  !- Name
  {1f8f7d3d-d38c-4e8b-8f00-cc4781678ea3}, !- Surface Rendering Name
  {4cacc186-7fb3-4b61-8fe9-93fd0012aa56}, !- Layer 1
  {221e2522-c984-4c12-8f8b-6439a3f35b87}, !- Layer 2
  {4cacc186-7fb3-4b61-8fe9-93fd0012aa56}; !- Layer 3

OS:Construction,
  {c6dd8c3c-b368-4da8-bbba-250684f814cb}, !- Handle
  Basic Roof: Wood Rafter 8" - Asphalt Shingle - Insulated, !- Name
  {4e62880c-5da1-4dbc-9a69-15edead68a0f}, !- Surface Rendering Name
  {551ab3be-47dd-427c-a4eb-ee80e60f093f}, !- Layer 1
  {f92b1c50-6fb0-4c3c-b4c5-781698c53f1c}, !- Layer 2
  {6b8ca11a-d9b7-467c-a11d-d0c02c50b02c}; !- Layer 3

OS:Construction,
  {bd49d5f5-49b8-45c9-8145-435da0dbe46e}, !- Handle
  1/8 in Pilkington single glazing,       !- Name
  {32108062-02b9-4355-9546-31b82e50272c}, !- Surface Rendering Name
  {477b472c-6376-4fee-95e4-ef739c28bc36}; !- Layer 1

OS:WindowMaterial:SimpleGlazingSystem,
  {477b472c-6376-4fee-95e4-ef739c28bc36}, !- Handle
  {375231ab-0f45-486f-b1e1-e3643399fb9d}, !- Name
  3.6886,                                 !- U-Factor {W/m2-K}
  0.86,                                   !- Solar Heat Gain Coefficient
  0.9;                                    !- Visible Transmittance

OS:Schedule:Year,
  {1cbdac97-5936-442f-b450-75a2babf3a24}, !- Handle
  School Lighting - 7 AM to 9 PM,         !- Name
  {bc9fd54e-a6a5-488a-9c27-40dbb3fa6f01}, !- Schedule Type Limits Name
  12,                                     !- Month 1
  31,                                     !- Day 1
  {9dc9b8ab-8cee-4d2d-87ec-915585121a84}; !- Week Schedule Until Date 1

OS:ScheduleTypeLimits,
  {bc9fd54e-a6a5-488a-9c27-40dbb3fa6f01}, !- Handle
  Fraction,                               !- Name
  ,                                       !- Lower Limit Value
  ,                                       !- Upper Limit Value
  ,                                       !- Numeric Type
  Dimensionless;                          !- Unit Type

OS:YearDescription,
  {bff21476-fa0c-4667-8355-5f5ed41a1717}, !- Handle
  2018,                                   !- Calendar Year
  ,                                       !- Day of Week for Start Day
  ;                                       !- Is Leap Year

OS:Schedule:Week,
  {9dc9b8ab-8cee-4d2d-87ec-915585121a84}, !- Handle
  School Lighting - 7 AM to 9 PM,         !- Name
  ,                                       !- Schedule Rendering Name
  {be29f814-0cc9-4b3c-ad61-1c969f10d8a4}, !- Sunday Schedule:Day Name
  {be29f814-0cc9-4b3c-ad61-1c969f10d8a4}, !- Monday Schedule:Day Name
  {be29f814-0cc9-4b3c-ad61-1c969f10d8a4}, !- Tuesday Schedule:Day Name
  {be29f814-0cc9-4b3c-ad61-1c969f10d8a4}, !- Wednesday Schedule:Day Name
  {be29f814-0cc9-4b3c-ad61-1c969f10d8a4}, !- Thursday Schedule:Day Name
  {be29f814-0cc9-4b3c-ad61-1c969f10d8a4}, !- Friday Schedule:Day Name
  {be29f814-0cc9-4b3c-ad61-1c969f10d8a4}, !- Saturday Schedule:Day Name
  {be29f814-0cc9-4b3c-ad61-1c969f10d8a4}, !- Holiday Schedule:Day Name
  {be29f814-0cc9-4b3c-ad61-1c969f10d8a4}, !- SummerDesignDay Schedule:Day Name
  {be29f814-0cc9-4b3c-ad61-1c969f10d8a4}, !- WinterDesignDay Schedule:Day Name
  {be29f814-0cc9-4b3c-ad61-1c969f10d8a4}, !- CustomDay1 Schedule:Day Name
  {be29f814-0cc9-4b3c-ad61-1c969f10d8a4}; !- CustomDay2 Schedule:Day Name

OS:Schedule:Day,
  {be29f814-0cc9-4b3c-ad61-1c969f10d8a4}, !- Handle
  School Lighting - 7 AM to 9 PM,         !- Name
  {bc9fd54e-a6a5-488a-9c27-40dbb3fa6f01}, !- Schedule Type Limits Name
  ,                                       !- Interpolate to Timestep
  1,                                      !- Hour 1
  0,                                      !- Minute 1
  0,                                      !- Value Until Time 1
  2,                                      !- Hour 2
  0,                                      !- Minute 2
  0,                                      !- Value Until Time 2
  3,                                      !- Hour 3
  0,                                      !- Minute 3
  0,                                      !- Value Until Time 3
  4,                                      !- Hour 4
  0,                                      !- Minute 4
  0,                                      !- Value Until Time 4
  5,                                      !- Hour 5
  0,                                      !- Minute 5
  0,                                      !- Value Until Time 5
  6,                                      !- Hour 6
  0,                                      !- Minute 6
  0,                                      !- Value Until Time 6
  7,                                      !- Hour 7
  0,                                      !- Minute 7
  0,                                      !- Value Until Time 7
  8,                                      !- Hour 8
  0,                                      !- Minute 8
  0.3,                                    !- Value Until Time 8
  9,                                      !- Hour 9
  0,                                      !- Minute 9
  0.85,                                   !- Value Until Time 9
  10,                                     !- Hour 10
  0,                                      !- Minute 10
  0.95,                                   !- Value Until Time 10
  11,                                     !- Hour 11
  0,                                      !- Minute 11
  0.95,                                   !- Value Until Time 11
  12,                                     !- Hour 12
  0,                                      !- Minute 12
  0.95,                                   !- Value Until Time 12
  13,                                     !- Hour 13
  0,                                      !- Minute 13
  0.8,                                    !- Value Until Time 13
  14,                                     !- Hour 14
  0,                                      !- Minute 14
  0.8,                                    !- Value Until Time 14
  15,                                     !- Hour 15
  0,                                      !- Minute 15
  0.8,                                    !- Value Until Time 15
  16,                                     !- Hour 16
  0,                                      !- Minute 16
  0.7,                                    !- Value Until Time 16
  17,                                     !- Hour 17
  0,                                      !- Minute 17
  0.5,                                    !- Value Until Time 17
  18,                                     !- Hour 18
  0,                                      !- Minute 18
  0.5,                                    !- Value Until Time 18
  19,                                     !- Hour 19
  0,                                      !- Minute 19
  0.35,                                   !- Value Until Time 19
  20,                                     !- Hour 20
  0,                                      !- Minute 20
  0.35,                                   !- Value Until Time 20
  21,                                     !- Hour 21
  0,                                      !- Minute 21
  0.3,                                    !- Value Until Time 21
  22,                                     !- Hour 22
  0,                                      !- Minute 22
  0.3,                                    !- Value Until Time 22
  23,                                     !- Hour 23
  0,                                      !- Minute 23
  0,                                      !- Value Until Time 23
  24,                                     !- Hour 24
  0,                                      !- Minute 24
  0;                                      !- Value Until Time 24

OS:Schedule:Year,
  {16738730-c65a-4593-9a0e-0753ace2c6fb}, !- Handle
  School Occupancy - 8am to 9pm,          !- Name
  {bc9fd54e-a6a5-488a-9c27-40dbb3fa6f01}, !- Schedule Type Limits Name
  12,                                     !- Month 1
  31,                                     !- Day 1
  {d15003e2-3bf0-4430-aeaf-62c015e80ada}; !- Week Schedule Until Date 1

OS:Schedule:Week,
  {d15003e2-3bf0-4430-aeaf-62c015e80ada}, !- Handle
  School Occupancy - 8am to 9pm,          !- Name
  ,                                       !- Schedule Rendering Name
  {cd16ee0c-627b-4ad0-aedd-d1ddc1b71f2e}, !- Sunday Schedule:Day Name
  {cd16ee0c-627b-4ad0-aedd-d1ddc1b71f2e}, !- Monday Schedule:Day Name
  {cd16ee0c-627b-4ad0-aedd-d1ddc1b71f2e}, !- Tuesday Schedule:Day Name
  {cd16ee0c-627b-4ad0-aedd-d1ddc1b71f2e}, !- Wednesday Schedule:Day Name
  {cd16ee0c-627b-4ad0-aedd-d1ddc1b71f2e}, !- Thursday Schedule:Day Name
  {cd16ee0c-627b-4ad0-aedd-d1ddc1b71f2e}, !- Friday Schedule:Day Name
  {cd16ee0c-627b-4ad0-aedd-d1ddc1b71f2e}, !- Saturday Schedule:Day Name
  {cd16ee0c-627b-4ad0-aedd-d1ddc1b71f2e}, !- Holiday Schedule:Day Name
  {cd16ee0c-627b-4ad0-aedd-d1ddc1b71f2e}, !- SummerDesignDay Schedule:Day Name
  {cd16ee0c-627b-4ad0-aedd-d1ddc1b71f2e}, !- WinterDesignDay Schedule:Day Name
  {cd16ee0c-627b-4ad0-aedd-d1ddc1b71f2e}, !- CustomDay1 Schedule:Day Name
  {cd16ee0c-627b-4ad0-aedd-d1ddc1b71f2e}; !- CustomDay2 Schedule:Day Name

OS:Schedule:Day,
  {cd16ee0c-627b-4ad0-aedd-d1ddc1b71f2e}, !- Handle
  School Occupancy - 8am to 9pm,          !- Name
  {bc9fd54e-a6a5-488a-9c27-40dbb3fa6f01}, !- Schedule Type Limits Name
  ,                                       !- Interpolate to Timestep
  1,                                      !- Hour 1
  0,                                      !- Minute 1
  0,                                      !- Value Until Time 1
  2,                                      !- Hour 2
  0,                                      !- Minute 2
  0,                                      !- Value Until Time 2
  3,                                      !- Hour 3
  0,                                      !- Minute 3
  0,                                      !- Value Until Time 3
  4,                                      !- Hour 4
  0,                                      !- Minute 4
  0,                                      !- Value Until Time 4
  5,                                      !- Hour 5
  0,                                      !- Minute 5
  0,                                      !- Value Until Time 5
  6,                                      !- Hour 6
  0,                                      !- Minute 6
  0,                                      !- Value Until Time 6
  7,                                      !- Hour 7
  0,                                      !- Minute 7
  0,                                      !- Value Until Time 7
  8,                                      !- Hour 8
  0,                                      !- Minute 8
  0.05,                                   !- Value Until Time 8
  9,                                      !- Hour 9
  0,                                      !- Minute 9
  0.75,                                   !- Value Until Time 9
  10,                                     !- Hour 10
  0,                                      !- Minute 10
  0.9,                                    !- Value Until Time 10
  11,                                     !- Hour 11
  0,                                      !- Minute 11
  0.9,                                    !- Value Until Time 11
  12,                                     !- Hour 12
  0,                                      !- Minute 12
  0.8,                                    !- Value Until Time 12
  13,                                     !- Hour 13
  0,                                      !- Minute 13
  0.8,                                    !- Value Until Time 13
  14,                                     !- Hour 14
  0,                                      !- Minute 14
  0.8,                                    !- Value Until Time 14
  15,                                     !- Hour 15
  0,                                      !- Minute 15
  0.8,                                    !- Value Until Time 15
  16,                                     !- Hour 16
  0,                                      !- Minute 16
  0.45,                                   !- Value Until Time 16
  17,                                     !- Hour 17
  0,                                      !- Minute 17
  0.15,                                   !- Value Until Time 17
  18,                                     !- Hour 18
  0,                                      !- Minute 18
  0.05,                                   !- Value Until Time 18
  19,                                     !- Hour 19
  0,                                      !- Minute 19
  0.15,                                   !- Value Until Time 19
  20,                                     !- Hour 20
  0,                                      !- Minute 20
  0.2,                                    !- Value Until Time 20
  21,                                     !- Hour 21
  0,                                      !- Minute 21
  0.2,                                    !- Value Until Time 21
  22,                                     !- Hour 22
  0,                                      !- Minute 22
  0.1,                                    !- Value Until Time 22
  23,                                     !- Hour 23
  0,                                      !- Minute 23
  0,                                      !- Value Until Time 23
  24,                                     !- Hour 24
  0,                                      !- Minute 24
  0;                                      !- Value Until Time 24

OS:Schedule:Year,
  {aa62f6ff-9e86-4669-b174-db1d8c0fed6a}, !- Handle
  Retail Lighting - 7 AM to 8 PM,         !- Name
  {bc9fd54e-a6a5-488a-9c27-40dbb3fa6f01}, !- Schedule Type Limits Name
  12,                                     !- Month 1
  31,                                     !- Day 1
  {3f398c46-7d3e-4166-a411-f3823538e7b7}; !- Week Schedule Until Date 1

OS:Schedule:Week,
  {3f398c46-7d3e-4166-a411-f3823538e7b7}, !- Handle
  Retail Lighting - 7 AM to 8 PM,         !- Name
  ,                                       !- Schedule Rendering Name
  {d44b19cc-8460-4ab4-b37a-aadad4664296}, !- Sunday Schedule:Day Name
  {d44b19cc-8460-4ab4-b37a-aadad4664296}, !- Monday Schedule:Day Name
  {d44b19cc-8460-4ab4-b37a-aadad4664296}, !- Tuesday Schedule:Day Name
  {d44b19cc-8460-4ab4-b37a-aadad4664296}, !- Wednesday Schedule:Day Name
  {d44b19cc-8460-4ab4-b37a-aadad4664296}, !- Thursday Schedule:Day Name
  {d44b19cc-8460-4ab4-b37a-aadad4664296}, !- Friday Schedule:Day Name
  {d44b19cc-8460-4ab4-b37a-aadad4664296}, !- Saturday Schedule:Day Name
  {d44b19cc-8460-4ab4-b37a-aadad4664296}, !- Holiday Schedule:Day Name
  {d44b19cc-8460-4ab4-b37a-aadad4664296}, !- SummerDesignDay Schedule:Day Name
  {d44b19cc-8460-4ab4-b37a-aadad4664296}, !- WinterDesignDay Schedule:Day Name
  {d44b19cc-8460-4ab4-b37a-aadad4664296}, !- CustomDay1 Schedule:Day Name
  {d44b19cc-8460-4ab4-b37a-aadad4664296}; !- CustomDay2 Schedule:Day Name

OS:Schedule:Day,
  {d44b19cc-8460-4ab4-b37a-aadad4664296}, !- Handle
  Retail Lighting - 7 AM to 8 PM,         !- Name
  {bc9fd54e-a6a5-488a-9c27-40dbb3fa6f01}, !- Schedule Type Limits Name
  ,                                       !- Interpolate to Timestep
  1,                                      !- Hour 1
  0,                                      !- Minute 1
  0,                                      !- Value Until Time 1
  2,                                      !- Hour 2
  0,                                      !- Minute 2
  0,                                      !- Value Until Time 2
  3,                                      !- Hour 3
  0,                                      !- Minute 3
  0,                                      !- Value Until Time 3
  4,                                      !- Hour 4
  0,                                      !- Minute 4
  0,                                      !- Value Until Time 4
  5,                                      !- Hour 5
  0,                                      !- Minute 5
  0,                                      !- Value Until Time 5
  6,                                      !- Hour 6
  0,                                      !- Minute 6
  0,                                      !- Value Until Time 6
  7,                                      !- Hour 7
  0,                                      !- Minute 7
  0,                                      !- Value Until Time 7
  8,                                      !- Hour 8
  0,                                      !- Minute 8
  0.2,                                    !- Value Until Time 8
  9,                                      !- Hour 9
  0,                                      !- Minute 9
  0.5,                                    !- Value Until Time 9
  10,                                     !- Hour 10
  0,                                      !- Minute 10
  0.9,                                    !- Value Until Time 10
  11,                                     !- Hour 11
  0,                                      !- Minute 11
  0.9,                                    !- Value Until Time 11
  12,                                     !- Hour 12
  0,                                      !- Minute 12
  0.9,                                    !- Value Until Time 12
  13,                                     !- Hour 13
  0,                                      !- Minute 13
  0.9,                                    !- Value Until Time 13
  14,                                     !- Hour 14
  0,                                      !- Minute 14
  0.9,                                    !- Value Until Time 14
  15,                                     !- Hour 15
  0,                                      !- Minute 15
  0.9,                                    !- Value Until Time 15
  16,                                     !- Hour 16
  0,                                      !- Minute 16
  0.9,                                    !- Value Until Time 16
  17,                                     !- Hour 17
  0,                                      !- Minute 17
  0.9,                                    !- Value Until Time 17
  18,                                     !- Hour 18
  0,                                      !- Minute 18
  0.9,                                    !- Value Until Time 18
  19,                                     !- Hour 19
  0,                                      !- Minute 19
  0.6,                                    !- Value Until Time 19
  20,                                     !- Hour 20
  0,                                      !- Minute 20
  0.6,                                    !- Value Until Time 20
  21,                                     !- Hour 21
  0,                                      !- Minute 21
  0.5,                                    !- Value Until Time 21
  22,                                     !- Hour 22
  0,                                      !- Minute 22
  0,                                      !- Value Until Time 22
  23,                                     !- Hour 23
  0,                                      !- Minute 23
  0,                                      !- Value Until Time 23
  24,                                     !- Hour 24
  0,                                      !- Minute 24
  0;                                      !- Value Until Time 24

OS:Schedule:Year,
  {25b01bca-a5bd-4472-99fc-7a175987bd2e}, !- Handle
  Retail Facility Occupancy - 7am to 8pm, !- Name
  {bc9fd54e-a6a5-488a-9c27-40dbb3fa6f01}, !- Schedule Type Limits Name
  12,                                     !- Month 1
  31,                                     !- Day 1
  {4bdeee77-2942-45b1-aef8-c38d48e69d18}; !- Week Schedule Until Date 1

OS:Schedule:Week,
  {4bdeee77-2942-45b1-aef8-c38d48e69d18}, !- Handle
  Retail Facility Occupancy - 7am to 8pm, !- Name
  ,                                       !- Schedule Rendering Name
  {af0a32bf-0ba7-4c93-be85-a494a5699049}, !- Sunday Schedule:Day Name
  {af0a32bf-0ba7-4c93-be85-a494a5699049}, !- Monday Schedule:Day Name
  {af0a32bf-0ba7-4c93-be85-a494a5699049}, !- Tuesday Schedule:Day Name
  {af0a32bf-0ba7-4c93-be85-a494a5699049}, !- Wednesday Schedule:Day Name
  {af0a32bf-0ba7-4c93-be85-a494a5699049}, !- Thursday Schedule:Day Name
  {af0a32bf-0ba7-4c93-be85-a494a5699049}, !- Friday Schedule:Day Name
  {af0a32bf-0ba7-4c93-be85-a494a5699049}, !- Saturday Schedule:Day Name
  {af0a32bf-0ba7-4c93-be85-a494a5699049}, !- Holiday Schedule:Day Name
  {af0a32bf-0ba7-4c93-be85-a494a5699049}, !- SummerDesignDay Schedule:Day Name
  {af0a32bf-0ba7-4c93-be85-a494a5699049}, !- WinterDesignDay Schedule:Day Name
  {af0a32bf-0ba7-4c93-be85-a494a5699049}, !- CustomDay1 Schedule:Day Name
  {af0a32bf-0ba7-4c93-be85-a494a5699049}; !- CustomDay2 Schedule:Day Name

OS:Schedule:Day,
  {af0a32bf-0ba7-4c93-be85-a494a5699049}, !- Handle
  Retail Facility Occupancy - 7am to 8pm, !- Name
  {bc9fd54e-a6a5-488a-9c27-40dbb3fa6f01}, !- Schedule Type Limits Name
  ,                                       !- Interpolate to Timestep
  1,                                      !- Hour 1
  0,                                      !- Minute 1
  0,                                      !- Value Until Time 1
  2,                                      !- Hour 2
  0,                                      !- Minute 2
  0,                                      !- Value Until Time 2
  3,                                      !- Hour 3
  0,                                      !- Minute 3
  0,                                      !- Value Until Time 3
  4,                                      !- Hour 4
  0,                                      !- Minute 4
  0,                                      !- Value Until Time 4
  5,                                      !- Hour 5
  0,                                      !- Minute 5
  0,                                      !- Value Until Time 5
  6,                                      !- Hour 6
  0,                                      !- Minute 6
  0,                                      !- Value Until Time 6
  7,                                      !- Hour 7
  0,                                      !- Minute 7
  0,                                      !- Value Until Time 7
  8,                                      !- Hour 8
  0,                                      !- Minute 8
  0.1,                                    !- Value Until Time 8
  9,                                      !- Hour 9
  0,                                      !- Minute 9
  0.2,                                    !- Value Until Time 9