
OS:Version,
  {132331fe-8242-4b33-bd31-07c15475be8f}, !- Handle
  2.6.0;                                  !- Version Identifier

OS:Material,
  {aaa7875d-f566-4def-bbbe-3fcbbd95b609}, !- Handle
  Structure- Wood Joist/Rafter Layer: 0.301625 m, !- Name
  MediumRough,                            !- Roughness
  0.301625,                               !- Thickness {m}
  0.025,                                  !- Conductivity {W/m-K}
  1.2,                                    !- Density {kg/m3}
  1003.5;                                 !- Specific Heat {J/kg-K}

OS:Material,
  {db6f1f12-26eb-48e6-9061-8225add3e939}, !- Handle
  Plywood- Sheathing: 0.01905 m,          !- Name
  MediumRough,                            !- Roughness
  0.01905,                                !- Thickness {m}
  0.106,                                  !- Conductivity {W/m-K}
  552,                                    !- Density {kg/m3}
  1420;                                   !- Specific Heat {J/kg-K}

OS:Material,
  {ba802057-161c-4fa1-8da7-51337da6eb52}, !- Handle
  Brick- Common: 0.092075 m,              !- Name
  MediumRough,                            !- Roughness
  0.092075,                               !- Thickness {m}
  0.54,                                   !- Conductivity {W/m-K}
  1550,                                   !- Density {kg/m3}
  840;                                    !- Specific Heat {J/kg-K}

OS:Material,
  {08e84c40-f430-425f-be8b-944243f2f8af}, !- Handle
  Air: 0.0762 m,                          !- Name
  MediumRough,                            !- Roughness
  0.0762,                                 !- Thickness {m}
  0.025,                                  !- Conductivity {W/m-K}
  1.2,                                    !- Density {kg/m3}
  1003.5;                                 !- Specific Heat {J/kg-K}

OS:Material,
  {32bd8fe1-e0d5-408a-8871-b1e904378320}, !- Handle
  Rigid insulation: 0.0762 m,             !- Name
  MediumRough,                            !- Roughness
  0.0762,                                 !- Thickness {m}
  0.035,                                  !- Conductivity {W/m-K}
  23,                                     !- Density {kg/m3}
  1470;                                   !- Specific Heat {J/kg-K}

OS:Material,
  {5b2bad67-61e9-4a37-9d69-406d5132d8c2}, !- Handle
  Concrete Masonry Units: 0.193675 m,     !- Name
  MediumRough,                            !- Roughness
  0.193675,                               !- Thickness {m}
  1.3,                                    !- Conductivity {W/m-K}
  1800,                                   !- Density {kg/m3}
  840;                                    !- Specific Heat {J/kg-K}

OS:Material,
  {0482553c-e7da-4c0a-8070-e7a4c6c6a67b}, !- Handle
  Metal Furring: 0.041275 m,              !- Name
  MediumRough,                            !- Roughness
  0.041275,                               !- Thickness {m}
  45,                                     !- Conductivity {W/m-K}
  7850,                                   !- Density {kg/m3}
  480;                                    !- Specific Heat {J/kg-K}

OS:Material,
  {1805ff38-8a04-488d-9e2f-81cf659af859}, !- Handle
  Gypsum Wall Board: 0.015875 m,          !- Name
  MediumRough,                            !- Roughness
  0.015875,                               !- Thickness {m}
  0.65,                                   !- Conductivity {W/m-K}
  1100,                                   !- Density {kg/m3}
  840;                                    !- Specific Heat {J/kg-K}

OS:Material,
  {d696c722-53b7-482b-a631-daac885d2a8f}, !- Handle
  Metal Stud Layer: 0.0635 m,             !- Name
  MediumRough,                            !- Roughness
  0.0635,                                 !- Thickness {m}
  0.025,                                  !- Conductivity {W/m-K}
  1.2,                                    !- Density {kg/m3}
  1003.5;                                 !- Specific Heat {J/kg-K}

OS:Material,
  {206e8598-3a65-4d40-bbbd-dc27ad11e11d}, !- Handle
  Metal surface,                          !- Name
  MediumRough,                            !- Roughness
  0.0008,                                 !- Thickness {m}
  45.28,                                  !- Conductivity {W/m-K}
  7824,                                   !- Density {kg/m3}
  500;                                    !- Specific Heat {J/kg-K}

OS:Material,
  {68f76dba-5465-44f6-a25b-57b916a96b5d}, !- Handle
  1 1/2 in wood,                          !- Name
  MediumRough,                            !- Roughness
  0.0376,                                 !- Thickness {m}
  0.15,                                   !- Conductivity {W/m-K}
  608,                                    !- Density {kg/m3}
  1630;                                   !- Specific Heat {J/kg-K}

OS:Construction,
  {dae064c7-83e9-4ca3-ae3a-c8f172b24f5e}, !- Handle
  Floor: Wood Truss  Joist 12" - Carpet Finish, !- Name
  {22ab9e8b-bb79-4f1d-b9c2-030d606c5298}, !- Surface Rendering Name
  {aaa7875d-f566-4def-bbbe-3fcbbd95b609}, !- Layer 1
  {db6f1f12-26eb-48e6-9061-8225add3e939}; !- Layer 2

OS:Construction,
  {f0797fea-0167-429b-9a62-0e0d38f7ec03}, !- Handle
  Basic Wall: Exterior - Brick on CMU,    !- Name
  {99aac874-245e-489f-8c3a-0d6709405b47}, !- Surface Rendering Name
  {ba802057-161c-4fa1-8da7-51337da6eb52}, !- Layer 1
  {08e84c40-f430-425f-be8b-944243f2f8af}, !- Layer 2
  {32bd8fe1-e0d5-408a-8871-b1e904378320}, !- Layer 3
  {5b2bad67-61e9-4a37-9d69-406d5132d8c2}, !- Layer 4
  {0482553c-e7da-4c0a-8070-e7a4c6c6a67b}, !- Layer 5
  {1805ff38-8a04-488d-9e2f-81cf659af859}; !- Layer 6

OS:Construction,
  {75db4d5e-fb05-44d2-b1b4-fc3a66b919c4}, !- Handle
  Basic Wall: Interior - 5" Partition (2-hr), !- Name
  {99ad7941-d5d8-4337-a4ba-408ed0e41d48}, !- Surface Rendering Name
  {1805ff38-8a04-488d-9e2f-81cf659af859}, !- Layer 1
  {1805ff38-8a04-488d-9e2f-81cf659af859}, !- Layer 2
  {d696c722-53b7-482b-a631-daac885d2a8f}, !- Layer 3
  {1805ff38-8a04-488d-9e2f-81cf659af859}, !- Layer 4
  {1805ff38-8a04-488d-9e2f-81cf659af859}; !- Layer 5

OS:Construction,
  {0cf7c942-6ed9-488c-b7a3-0e2166551939}, !- Handle
  Metal,                                  !- Name
  {615b13e4-afb0-412e-9c21-cb2a0cc292fd}, !- Surface Rendering Name
  {206e8598-3a65-4d40-bbbd-dc27ad11e11d}, !- Layer 1
  {68f76dba-5465-44f6-a25b-57b916a96b5d}, !- Layer 2
  {206e8598-3a65-4d40-bbbd-dc27ad11e11d}; !- Layer 3

OS:Construction,
  {014b4876-57df-4ca7-a366-1a9cc3d821b7}, !- Handle
  {bf3b1ce1-40bf-4e46-acd8-514737745b97}, !- Name
  {7bf978db-8919-4231-a5c1-9d6d3f6a948a}, !- Surface Rendering Name
  {1805ff38-8a04-488d-9e2f-81cf659af859}, !- Layer 1
  {1805ff38-8a04-488d-9e2f-81cf659af859}, !- Layer 2
  {d696c722-53b7-482b-a631-daac885d2a8f}, !- Layer 3
  {1805ff38-8a04-488d-9e2f-81cf659af859}, !- Layer 4
  {1805ff38-8a04-488d-9e2f-81cf659af859}; !- Layer 5

OS:Construction,
  {8a39f441-4b05-4565-b1ff-38ec3254dd40}, !- Handle
  1/8 in Pilkington single glazing,       !- Name
  {93532ec5-24fb-4a01-9e7e-4c5a60852805}, !- Surface Rendering Name
  {ef0f6663-ee0c-4f76-9a61-dbdfe716708e}; !- Layer 1

OS:WindowMaterial:SimpleGlazingSystem,
  {ef0f6663-ee0c-4f76-9a61-dbdfe716708e}, !- Handle
  {a6d650e5-09cb-4632-9913-b399c674856a}, !- Name
  3.6886,                                 !- U-Factor {W/m2-K}
  0.86,                                   !- Solar Heat Gain Coefficient
  0.9;                                    !- Visible Transmittance

OS:Schedule:Year,
  {2991d24f-8f9d-47e3-b543-a35a7cbc1260}, !- Handle
  Office Lighting - 6 AM to 11 PM,        !- Name
  {16cb1ebe-c065-4473-94ec-e4a8cfa2089e}, !- Schedule Type Limits Name
  12,                                     !- Month 1
  31,                                     !- Day 1
  {7820e1e4-54f6-4a4a-811d-ce94c92a670a}; !- Week Schedule Until Date 1

OS:ScheduleTypeLimits,
  {16cb1ebe-c065-4473-94ec-e4a8cfa2089e}, !- Handle
  Fraction,                               !- Name
  ,                                       !- Lower Limit Value
  ,                                       !- Upper Limit Value
  ,                                       !- Numeric Type
  Dimensionless;                          !- Unit Type

OS:YearDescription,
  {9bc2fdda-3124-4325-b3aa-7b764d40156f}, !- Handle
  2018,                                   !- Calendar Year
  ,                                       !- Day of Week for Start Day
  ;                                       !- Is Leap Year

OS:Schedule:Week,
  {7820e1e4-54f6-4a4a-811d-ce94c92a670a}, !- Handle
  Office Lighting - 6 AM to 11 PM,        !- Name
  ,                                       !- Schedule Rendering Name
  {1a807c85-8e35-40ff-b277-62af46a0087d}, !- Sunday Schedule:Day Name
  {1a807c85-8e35-40ff-b277-62af46a0087d}, !- Monday Schedule:Day Name
  {1a807c85-8e35-40ff-b277-62af46a0087d}, !- Tuesday Schedule:Day Name
  {1a807c85-8e35-40ff-b277-62af46a0087d}, !- Wednesday Schedule:Day Name
  {1a807c85-8e35-40ff-b277-62af46a0087d}, !- Thursday Schedule:Day Name
  {1a807c85-8e35-40ff-b277-62af46a0087d}, !- Friday Schedule:Day Name
  {1a807c85-8e35-40ff-b277-62af46a0087d}, !- Saturday Schedule:Day Name
  {1a807c85-8e35-40ff-b277-62af46a0087d}, !- Holiday Schedule:Day Name
  {1a807c85-8e35-40ff-b277-62af46a0087d}, !- SummerDesignDay Schedule:Day Name
  {1a807c85-8e35-40ff-b277-62af46a0087d}, !- WinterDesignDay Schedule:Day Name
  {1a807c85-8e35-40ff-b277-62af46a0087d}, !- CustomDay1 Schedule:Day Name
  {1a807c85-8e35-40ff-b277-62af46a0087d}; !- CustomDay2 Schedule:Day Name

OS:Schedule:Day,
  {1a807c85-8e35-40ff-b277-62af46a0087d}, !- Handle
  Office Lighting - 6 AM to 11 PM,        !- Name
  {16cb1ebe-c065-4473-94ec-e4a8cfa2089e}, !- Schedule Type Limits Name
  ,                                       !- Interpolate to Timestep
  1,                                      !- Hour 1
  0,                                      !- Minute 1
  0,                                      !- Value Until Time 1
  2,                                      !- Hour 2
  0,                                      !- Minute 2
  0,                                      !- Value Until Time 2
  3,                                      !- Hour 3
  0,                                      !- Minute 3
  0,                                      !- Value Until Time 3
  4,                                      !- Hour 4
  0,                                      !- Minute 4
  0,                                      !- Value Until Time 4
  5,                                      !- Hour 5
  0,                                      !- Minute 5
  0,                                      !- Value Until Time 5
  6,                                      !- Hour 6
  0,                                      !- Minute 6
  0,                                      !- Value Until Time 6
  7,                                      !- Hour 7
  0,                                      !- Minute 7
  0.1,                                    !- Value Until Time 7
  8,                                      !- Hour 8
  0,                                      !- Minute 8
  0.3,                                    !- Value Until Time 8
  9,                                      !- Hour 9
  0,                                      !- Minute 9
  0.9,                                    !- Value Until Time 9
  10,                                     !- Hour 10
  0,                                      !- Minute 10
  0.9,                                    !- Value Until Time 10
  11,                                     !- Hour 11
  0,                                      !- Minute 11
  0.9,                                    !- Value Until Time 11
  12,                                     !- Hour 12
  0,                                      !- Minute 12
  0.9,                                    !- Value Until Time 12
  13,                                     !- Hour 13
  0,                                      !- Minute 13
  0.8,                                    !- Value Until Time 13
  14,                                     !- Hour 14
  0,                                      !- Minute 14
  0.9,                                    !- Value Until Time 14
  15,                                     !- Hour 15
  0,                                      !- Minute 15
  0.9,                                    !- Value Until Time 15
  16,                                     !- Hour 16
  0,                                      !- Minute 16
  0.9,                                    !- Value Until Time 16
  17,                                     !- Hour 17
  0,                                      !- Minute 17
  0.9,                                    !- Value Until Time 17
  18,                                     !- Hour 18
  0,                                      !- Minute 18
  0.5,                                    !- Value Until Time 18
  19,                                     !- Hour 19
  0,                                      !- Minute 19
  0.3,                                    !- Value Until Time 19
  20,                                     !- Hour 20
  0,                                      !- Minute 20
  0.3,                                    !- Value Until Time 20
  21,                                     !- Hour 21
  0,                                      !- Minute 21
  0.2,                                    !- Value Until Time 21
  22,                                     !- Hour 22
  0,                                      !- Minute 22
  0.2,                                    !- Value Until Time 22
  23,                                     !- Hour 23
  0,                                      !- Minute 23
  0,                                      !- Value Until Time 23
  24,                                     !- Hour 24
  0,                                      !- Minute 24
  0;                                      !- Value Until Time 24

OS:Schedule:Year,
  {b486f8ff-fa7c-411c-a641-1e0ef83825f3}, !- Handle
  Common Office Occupancy - 8 AM to 5 PM, !- Name
  {16cb1ebe-c065-4473-94ec-e4a8cfa2089e}, !- Schedule Type Limits Name
  12,                                     !- Month 1
  31,                                     !- Day 1
  {fc59bd94-eba0-4463-8399-68755a3c56b4}; !- Week Schedule Until Date 1

OS:Schedule:Week,
  {fc59bd94-eba0-4463-8399-68755a3c56b4}, !- Handle
  Common Office Occupancy - 8 AM to 5 PM, !- Name
  ,                                       !- Schedule Rendering Name
  {a55eec79-d89e-4ea9-88ef-4e3ea85a4982}, !- Sunday Schedule:Day Name
  {a55eec79-d89e-4ea9-88ef-4e3ea85a4982}, !- Monday Schedule:Day Name
  {a55eec79-d89e-4ea9-88ef-4e3ea85a4982}, !- Tuesday Schedule:Day Name
  {a55eec79-d89e-4ea9-88ef-4e3ea85a4982}, !- Wednesday Schedule:Day Name
  {a55eec79-d89e-4ea9-88ef-4e3ea85a4982}, !- Thursday Schedule:Day Name
  {a55eec79-d89e-4ea9-88ef-4e3ea85a4982}, !- Friday Schedule:Day Name
  {a55eec79-d89e-4ea9-88ef-4e3ea85a4982}, !- Saturday Schedule:Day Name
  {a55eec79-d89e-4ea9-88ef-4e3ea85a4982}, !- Holiday Schedule:Day Name
  {a55eec79-d89e-4ea9-88ef-4e3ea85a4982}, !- SummerDesignDay Schedule:Day Name
  {a55eec79-d89e-4ea9-88ef-4e3ea85a4982}, !- WinterDesignDay Schedule:Day Name
  {a55eec79-d89e-4ea9-88ef-4e3ea85a4982}, !- CustomDay1 Schedule:Day Name
  {a55eec79-d89e-4ea9-88ef-4e3ea85a4982}; !- CustomDay2 Schedule:Day Name

OS:Schedule:Day,
  {a55eec79-d89e-4ea9-88ef-4e3ea85a4982}, !- Handle
  Common Office Occupancy - 8 AM to 5 PM, !- Name
  {16cb1ebe-c065-4473-94ec-e4a8cfa2089e}, !- Schedule Type Limits Name
  ,                                       !- Interpolate to Timestep
  1,                                      !- Hour 1
  0,                                      !- Minute 1
  0,                                      !- Value Until Time 1
  2,                                      !- Hour 2
  0,                                      !- Minute 2
  0,                                      !- Value Until Time 2
  3,                                      !- Hour 3
  0,                                      !- Minute 3
  0,                                      !- Value Until Time 3
  4,                                      !- Hour 4
  0,                                      !- Minute 4
  0,                                      !- Value Until Time 4
  5,                                      !- Hour 5
  0,                                      !- Minute 5
  0,                                      !- Value Until Time 5
  6,                                      !- Hour 6
  0,                                      !- Minute 6
  0,                                      !- Value Until Time 6
  7,                                      !- Hour 7
  0,                                      !- Minute 7
  0,                                      !- Value Until Time 7
  8,                                      !- Hour 8
  0,                                      !- Minute 8
  0.1,                                    !- Value Until Time 8
  9,                                      !- Hour 9
  0,                                      !- Minute 9
  0.2,                                    !- Value Until Time 9
  10,                                     !- Hour 10
  0,                                      !- Minute 10
  0.95,                                   !- Value Until Time 10
  11,                                     !- Hour 11
  0,                                      !- Minute 11
  0.95,                                   !- Value Until Time 11
  12,                                     !- Hour 12
  0,                                      !- Minute 12
  0.45,                                   !- Value Until Time 12
  13,                                     !- Hour 13
  0,                                      !- Minute 13
  0.45,                                   !- Value Until Time 13
  14,                                     !- Hour 14
  0,                                      !- Minute 14
  0.95,                                   !- Value Until Time 14
  15,                                     !- Hour 15
  0,                                      !- Minute 15
  0.95,                                   !- Value Until Time 15
  16,                                     !- Hour 16
  0,                                      !- Minute 16
  0.95,                                   !- Value Until Time 16
  17,                                     !- Hour 17
  0,                                      !- Minute 17
  0.95,                                   !- Value Until Time 17
  18,                                     !- Hour 18
  0,                                      !- Minute 18
  0.95,                                   !- Value Until Time 18
  19,                                     !- Hour 19
  0,                                      !- Minute 19
  0.3,                                    !- Value Until Time 19
  20,                                     !- Hour 20
  0,                                      !- Minute 20
  0.1,                                    !- Value Until Time 20
  21,                                     !- Hour 21
  0,                                      !- Minute 21
  0.1,                                    !- Value Until Time 21
  22,                                     !- Hour 22
  0,                                      !- Minute 22
  0.1,                                    !- Value Until Time 22
  23,                                     !- Hour 23
  0,                                      !- Minute 23
  0,                                      !- Value Until Time 23
  24,                                     !- Hour 24
  0,                                      !- Minute 24
  0;                                      !- Value Until Time 24

OS:Schedule:Year,
  {958b1663-f615-431b-9915-46d4f0b35b74}, !- Handle
  School Lighting - 7 AM to 9 PM,         !- Name
  {16cb1ebe-c065-4473-94ec-e4a8cfa2089e}, !- Schedule Type Limits Name
  12,                                     !- Month 1
  31,                                     !- Day 1
  {21b4ae15-2a6e-4cd2-8873-8c0d8bdd369f}; !- Week Schedule Until Date 1

OS:Schedule:Week,
  {21b4ae15-2a6e-4cd2-8873-8c0d8bdd369f}, !- Handle
  School Lighting - 7 AM to 9 PM,         !- Name
  ,                                       !- Schedule Rendering Name
  {5170101e-9c32-4ef0-b436-5076f44f3b5b}, !- Sunday Schedule:Day Name
  {5170101e-9c32-4ef0-b436-5076f44f3b5b}, !- Monday Schedule:Day Name
  {5170101e-9c32-4ef0-b436-5076f44f3b5b}, !- Tuesday Schedule:Day Name
  {5170101e-9c32-4ef0-b436-5076f44f3b5b}, !- Wednesday Schedule:Day Name
  {5170101e-9c32-4ef0-b436-5076f44f3b5b}, !- Thursday Schedule:Day Name
  {5170101e-9c32-4ef0-b436-5076f44f3b5b}, !- Friday Schedule:Day Name
  {5170101e-9c32-4ef0-b436-5076f44f3b5b}, !- Saturday Schedule:Day Name
  {5170101e-9c32-4ef0-b436-5076f44f3b5b}, !- Holiday Schedule:Day Name
  {5170101e-9c32-4ef0-b436-5076f44f3b5b}, !- SummerDesignDay Schedule:Day Name
  {5170101e-9c32-4ef0-b436-5076f44f3b5b}, !- WinterDesignDay Schedule:Day Name
  {5170101e-9c32-4ef0-b436-5076f44f3b5b}, !- CustomDay1 Schedule:Day Name
  {5170101e-9c32-4ef0-b436-5076f44f3b5b}; !- CustomDay2 Schedule:Day Name

OS:Schedule:Day,
  {5170101e-9c32-4ef0-b436-5076f44f3b5b}, !- Handle
  School Lighting - 7 AM to 9 PM,         !- Name
  {16cb1ebe-c065-4473-94ec-e4a8cfa2089e}, !- Schedule Type Limits Name
  ,                                       !- Interpolate to Timestep
  1,                                      !- Hour 1
  0,                                      !- Minute 1
  0,                                      !- Value Until Time 1
  2,                                      !- Hour 2
  0,                                      !- Minute 2
  0,                                      !- Value Until Time 2
  3,                                      !- Hour 3
  0,                                      !- Minute 3
  0,                                      !- Value Until Time 3
  4,                                      !- Hour 4
  0,                                      !- Minute 4
  0,                                      !- Value Until Time 4
  5,                                      !- Hour 5
  0,                                      !- Minute 5
  0,                                      !- Value Until Time 5
  6,                                      !- Hour 6
  0,                                      !- Minute 6
  0,                                      !- Value Until Time 6
  7,                                      !- Hour 7
  0,                                      !- Minute 7
  0,                                      !- Value Until Time 7
  8,                                      !- Hour 8
  0,                                      !- Minute 8
  0.3,                                    !- Value Until Time 8
  9,                                      !- Hour 9
  0,                                      !- Minute 9
  0.85,                                   !- Value Until Time 9
  10,                                     !- Hour 10
  0,                                      !- Minute 10
  0.95,                                   !- Value Until Time 10
  11,                                     !- Hour 11
  0,                                      !- Minute 11
  0.95,                                   !- Value Until Time 11
  12,                                     !- Hour 12
  0,                                      !- Minute 12
  0.95,                                   !- Value Until Time 12
  13,                                     !- Hour 13
  0,                                      !- Minute 13
  0.8,                                    !- Value Until Time 13
  14,                                     !- Hour 14
  0,                                      !- Minute 14
  0.8,                                    !- Value Until Time 14
  15,                                     !- Hour 15
  0,                                      !- Minute 15
  0.8,                                    !- Value Until Time 15
  16,                                     !- Hour 16
  0,                                      !- Minute 16
  0.7,                                    !- Value Until Time 16
  17,                                     !- Hour 17
  0,                                      !- Minute 17
  0.5,                                    !- Value Until Time 17
  18,                                     !- Hour 18
  0,                                      !- Minute 18
  0.5,                                    !- Value Until Time 18
  19,                                     !- Hour 19
  0,                                      !- Minute 19
  0.35,                                   !- Value Until Time 19
  20,                                     !- Hour 20
  0,                                      !- Minute 20
  0.35,                                   !- Value Until Time 20
  21,                                     !- Hour 21
  0,                                      !- Minute 21
  0.3,                                    !- Value Until Time 21
  22,                                     !- Hour 22
  0,                                      !- Minute 22
  0.3,                                    !- Value Until Time 22
  23,                                     !- Hour 23
  0,                                      !- Minute 23
  0,                                      !- Value Until Time 23
  24,                                     !- Hour 24
  0,                                      !- Minute 24
  0;                                      !- Value Until Time 24

OS:Schedule:Year,
  {a7aa3e7a-5148-43df-b9f2-c9e79a563a57}, !- Handle
  School Occupancy - 8am to 9pm,          !- Name
  {16cb1ebe-c065-4473-94ec-e4a8cfa2089e}, !- Schedule Type Limits Name
  12,                                     !- Month 1
  31,                                     !- Day 1
  {2dd0d1b1-37d0-4edc-9dba-f7ce1785fbe4}; !- Week Schedule Until Date 1

OS:Schedule:Week,
  {2dd0d1b1-37d0-4edc-9dba-f7ce1785fbe4}, !- Handle
  School Occupancy - 8am to 9pm,          !- Name
  ,                                       !- Schedule Rendering Name
  {01210bc0-90bc-4ff4-98ac-347dca094874}, !- Sunday Schedule:Day Name
  {01210bc0-90bc-4ff4-98ac-347dca094874}, !- Monday Schedule:Day Name
  {01210bc0-90bc-4ff4-98ac-347dca094874}, !- Tuesday Schedule:Day Name
  {01210bc0-90bc-4ff4-98ac-347dca094874}, !- Wednesday Schedule:Day Name
  {01210bc0-90bc-4ff4-98ac-347dca094874}, !- Thursday Schedule:Day Name
  {01210bc0-90bc-4ff4-98ac-347dca094874}, !- Friday Schedule:Day Name
  {01210bc0-90bc-4ff4-98ac-347dca094874}, !- Saturday Schedule:Day Name
  {01210bc0-90bc-4ff4-98ac-347dca094874}, !- Holiday Schedule:Day Name
  {01210bc0-90bc-4ff4-98ac-347dca094874}, !- SummerDesignDay Schedule:Day Name
  {01210bc0-90bc-4ff4-98ac-347dca094874}, !- WinterDesignDay Schedule:Day Name
  {01210bc0-90bc-4ff4-98ac-347dca094874}, !- CustomDay1 Schedule:Day Name
  {01210bc0-90bc-4ff4-98ac-347dca094874}; !- CustomDay2 Schedule:Day Name

OS:Schedule:Day,
  {01210bc0-90bc-4ff4-98ac-347dca094874}, !- Handle
  School Occupancy - 8am to 9pm,          !- Name
  {16cb1ebe-c065-4473-94ec-e4a8cfa2089e}, !- Schedule Type Limits Name
  ,                                       !- Interpolate to Timestep
  1,                                      !- Hour 1
  0,                                      !- Minute 1
  0,                                      !- Value Until Time 1
  2,                                      !- Hour 2
  0,                                      !- Minute 2
  0,                                      !- Value Until Time 2
  3,                                      !- Hour 3
  0,                                      !- Minute 3
  0,                                      !- Value Until Time 3
  4,                                      !- Hour 4
  0,                                      !- Minute 4
  0,                                      !- Value Until Time 4
  5,                                      !- Hour 5
  0,                                      !- Minute 5
  0,                                      !- Value Until Time 5
  6,                                      !- Hour 6
  0,                                      !- Minute 6
  0,                                      !- Value Until Time 6
  7,                                      !- Hour 7
  0,                                      !- Minute 7
  0,                                      !- Value Until Time 7
  8,                                      !- Hour 8
  0,                                      !- Minute 8
  0.05,                                   !- Value Until Time 8
  9,                                      !- Hour 9
  0,                                      !- Minute 9
  0.75,                                   !- Value Until Time 9
  10,                                     !- Hour 10
  0,                                      !- Minute 10
  0.9,                                    !- Value Until Time 10
  11,                                     !- Hour 11
  0,                                      !- Minute 11
  0.9,                                    !- Value Until Time 11
  12,                                     !- Hour 12
  0,                                      !- Minute 12
  0.8,                                    !- Value Until Time 12
  13,                                     !- Hour 13
  0,                                      !- Minute 13
  0.8,                                    !- Value Until Time 13
  14,                                     !- Hour 14
  0,                                      !- Minute 14
  0.8,                                    !- Value Until Time 14
  15,                                     !- Hour 15
  0,                                      !- Minute 15
  0.8,                                    !- Value Until Time 15
  16,                                     !- Hour 16
  0,                                      !- Minute 16
  0.45,                                   !- Value Until Time 16