
Version,
  8.9;                                    !- Version Identifier

Timestep,
  6;                                      !- Number of Timesteps per Hour

LifeCycleCost:Parameters,
  {2dbd5484-1a11-4bdb-9813-77a54989e9b0}, !- Name
  EndOfYear,                              !- Discounting Convention
  ConstantDollar,                         !- Inflation Approach
  0.03,                                   !- Real Discount Rate
  ,                                       !- Nominal Discount Rate
  ,                                       !- Inflation
  ,                                       !- Base Date Month
  2011,                                   !- Base Date Year
  ,                                       !- Service Date Month
  2011,                                   !- Service Date Year
  25,                                     !- Length of Study Period in Years
  ,                                       !- Tax rate
  None;                                   !- Depreciation Method

LifeCycleCost:UsePriceEscalation,
  U.S. Avg  Commercial-Electricity,       !- LCC Price Escalation Name
  Electricity,                            !- Resource
  2011,                                   !- Escalation Start Year
  January,                                !- Escalation Start Month
  0.9838,                                 !- Year Escalation 1
  0.9730,                                 !- Year Escalation 2
  0.9632,                                 !- Year Escalation 3
  0.9611,                                 !- Year Escalation 4
  0.9571,                                 !- Year Escalation 5
  0.9553,                                 !- Year Escalation 6
  0.9539,                                 !- Year Escalation 7
  0.9521,                                 !- Year Escalation 8
  0.9546,                                 !- Year Escalation 9
  0.9550,                                 !- Year Escalation 10
  0.9553,                                 !- Year Escalation 11
  0.9564,                                 !- Year Escalation 12
  0.9575,                                 !- Year Escalation 13
  0.9596,                                 !- Year Escalation 14
  0.9618,                                 !- Year Escalation 15
  0.9614,                                 !- Year Escalation 16
  0.9618,                                 !- Year Escalation 17
  0.9618,                                 !- Year Escalation 18
  0.9593,                                 !- Year Escalation 19
  0.9589,                                 !- Year Escalation 20
  0.9607,                                 !- Year Escalation 21
  0.9625,                                 !- Year Escalation 22
  0.9650,                                 !- Year Escalation 23
  0.9708,                                 !- Year Escalation 24
  0.9751,                                 !- Year Escalation 25
  0.9762,                                 !- Year Escalation 26
  0.9766,                                 !- Year Escalation 27
  0.9766,                                 !- Year Escalation 28
  0.9769,                                 !- Year Escalation 29
  0.9773;                                 !- Year Escalation 30

LifeCycleCost:UsePriceEscalation,
  U.S. Avg  Commercial-Distillate Oil,    !- LCC Price Escalation Name
  FuelOil#1,                              !- Resource
  2011,                                   !- Escalation Start Year
  January,                                !- Escalation Start Month
  0.9714,                                 !- Year Escalation 1
  0.9730,                                 !- Year Escalation 2
  0.9942,                                 !- Year Escalation 3
  1.0164,                                 !- Year Escalation 4
  1.0541,                                 !- Year Escalation 5
  1.0928,                                 !- Year Escalation 6
  1.1267,                                 !- Year Escalation 7
  1.1580,                                 !- Year Escalation 8
  1.1792,                                 !- Year Escalation 9
  1.1967,                                 !- Year Escalation 10
  1.2200,                                 !- Year Escalation 11
  1.2333,                                 !- Year Escalation 12
  1.2566,                                 !- Year Escalation 13
  1.2709,                                 !- Year Escalation 14
  1.2826,                                 !- Year Escalation 15
  1.2985,                                 !- Year Escalation 16
  1.3102,                                 !- Year Escalation 17
  1.3250,                                 !- Year Escalation 18
  1.3261,                                 !- Year Escalation 19
  1.3282,                                 !- Year Escalation 20
  1.3324,                                 !- Year Escalation 21
  1.3356,                                 !- Year Escalation 22
  1.3431,                                 !- Year Escalation 23
  1.3510,                                 !- Year Escalation 24
  1.3568,                                 !- Year Escalation 25
  1.3606,                                 !- Year Escalation 26
  1.3637,                                 !- Year Escalation 27
  1.3674,                                 !- Year Escalation 28
  1.3706,                                 !- Year Escalation 29
  1.3743;                                 !- Year Escalation 30

LifeCycleCost:UsePriceEscalation,
  U.S. Avg  Commercial-Residual Oil,      !- LCC Price Escalation Name
  FuelOil#2,                              !- Resource
  2011,                                   !- Escalation Start Year
  January,                                !- Escalation Start Month
  0.8469,                                 !- Year Escalation 1
  0.8257,                                 !- Year Escalation 2
  0.8681,                                 !- Year Escalation 3
  0.8988,                                 !- Year Escalation 4
  0.9289,                                 !- Year Escalation 5
  0.9604,                                 !- Year Escalation 6
  0.9897,                                 !- Year Escalation 7
  1.0075,                                 !- Year Escalation 8
  1.0314,                                 !- Year Escalation 9
  1.0554,                                 !- Year Escalation 10
  1.0861,                                 !- Year Escalation 11
  1.1278,                                 !- Year Escalation 12
  1.1497,                                 !- Year Escalation 13
  1.1620,                                 !- Year Escalation 14
  1.1743,                                 !- Year Escalation 15
  1.1852,                                 !- Year Escalation 16
  1.1948,                                 !- Year Escalation 17
  1.2037,                                 !- Year Escalation 18
  1.2071,                                 !- Year Escalation 19
  1.2119,                                 !- Year Escalation 20
  1.2139,                                 !- Year Escalation 21
  1.2194,                                 !- Year Escalation 22
  1.2276,                                 !- Year Escalation 23
  1.2365,                                 !- Year Escalation 24
  1.2420,                                 !- Year Escalation 25
  1.2461,                                 !- Year Escalation 26
  1.2509,                                 !- Year Escalation 27
  1.2550,                                 !- Year Escalation 28
  1.2591,                                 !- Year Escalation 29
  1.2638;                                 !- Year Escalation 30

LifeCycleCost:UsePriceEscalation,
  U.S. Avg  Commercial-Natural gas,       !- LCC Price Escalation Name
  NaturalGas,                             !- Resource
  2011,                                   !- Escalation Start Year
  January,                                !- Escalation Start Month
  0.9823,                                 !- Year Escalation 1
  0.9557,                                 !- Year Escalation 2
  0.9279,                                 !- Year Escalation 3
  0.9257,                                 !- Year Escalation 4
  0.9346,                                 !- Year Escalation 5
  0.9412,                                 !- Year Escalation 6
  0.9512,                                 !- Year Escalation 7
  0.9645,                                 !- Year Escalation 8
  0.9856,                                 !- Year Escalation 9
  1.0067,                                 !- Year Escalation 10
  1.0222,                                 !- Year Escalation 11
  1.0410,                                 !- Year Escalation 12
  1.0610,                                 !- Year Escalation 13
  1.0787,                                 !- Year Escalation 14
  1.0942,                                 !- Year Escalation 15
  1.1098,                                 !- Year Escalation 16
  1.1220,                                 !- Year Escalation 17
  1.1308,                                 !- Year Escalation 18
  1.1386,                                 !- Year Escalation 19
  1.1486,                                 !- Year Escalation 20
  1.1619,                                 !- Year Escalation 21
  1.1763,                                 !- Year Escalation 22
  1.1918,                                 !- Year Escalation 23
  1.2118,                                 !- Year Escalation 24
  1.2284,                                 !- Year Escalation 25
  1.2439,                                 !- Year Escalation 26
  1.2605,                                 !- Year Escalation 27
  1.2772,                                 !- Year Escalation 28
  1.2938,                                 !- Year Escalation 29
  1.3115;                                 !- Year Escalation 30

LifeCycleCost:UsePriceEscalation,
  U.S. Avg  Commercial-Coal,              !- LCC Price Escalation Name
  Coal,                                   !- Resource
  2011,                                   !- Escalation Start Year
  January,                                !- Escalation Start Month
  0.9970,                                 !- Year Escalation 1
  1.0089,                                 !- Year Escalation 2
  1.0089,                                 !- Year Escalation 3
  0.9941,                                 !- Year Escalation 4
  0.9941,                                 !- Year Escalation 5
  1.0000,                                 !- Year Escalation 6
  1.0030,                                 !- Year Escalation 7
  1.0059,                                 !- Year Escalation 8
  1.0089,                                 !- Year Escalation 9
  1.0119,                                 !- Year Escalation 10
  1.0148,                                 !- Year Escalation 11
  1.0178,                                 !- Year Escalation 12
  1.0208,                                 !- Year Escalation 13
  1.0267,                                 !- Year Escalation 14
  1.0297,                                 !- Year Escalation 15
  1.0356,                                 !- Year Escalation 16
  1.0415,                                 !- Year Escalation 17
  1.0534,                                 !- Year Escalation 18
  1.0564,                                 !- Year Escalation 19
  1.0593,                                 !- Year Escalation 20
  1.0653,                                 !- Year Escalation 21
  1.0712,                                 !- Year Escalation 22
  1.0742,                                 !- Year Escalation 23
  1.0801,                                 !- Year Escalation 24
  1.0831,                                 !- Year Escalation 25
  1.0831,                                 !- Year Escalation 26
  1.0861,                                 !- Year Escalation 27
  1.0890,                                 !- Year Escalation 28
  1.0920,                                 !- Year Escalation 29
  1.0950;                                 !- Year Escalation 30

Building,
  Project Name,                           !- Name
  ,                                       !- North Axis {deg}
  ,                                       !- Terrain
  ,                                       !- Loads Convergence Tolerance Value
  ,                                       !- Temperature Convergence Tolerance Value {deltaC}
  ,                                       !- Solar Distribution
  ,                                       !- Maximum Number of Warmup Days
  ;                                       !- Minimum Number of Warmup Days

Shading:Building:Detailed,
  aim2792,                                !- Name
  ,                                       !- Transmittance Schedule Name
  ,                                       !- Number of Vertices
  -16.42426, 1.304794, 8.808754,          !- X,Y,Z Vertex 1 {m}
  -16.42426, -8.245606, 3.293647,         !- X,Y,Z Vertex 2 {m}
  -14.90519, -7.21313, 3.889875;          !- X,Y,Z Vertex 3 {m}

Shading:Building:Detailed,
  aim2799,                                !- Name
  ,                                       !- Transmittance Schedule Name
  ,                                       !- Number of Vertices
  -14.90519, -7.21313, 3.889875,          !- X,Y,Z Vertex 1 {m}
  -16.42426, -8.245606, 3.293647,         !- X,Y,Z Vertex 2 {m}
  14.86854, -8.245606, 3.293647,          !- X,Y,Z Vertex 3 {m}
  13.34947, -7.21313, 3.889875;           !- X,Y,Z Vertex 4 {m}

Shading:Building:Detailed,
  aim2807,                                !- Name
  ,                                       !- Transmittance Schedule Name
  ,                                       !- Number of Vertices
  -16.42426, 1.304794, 8.808754,          !- X,Y,Z Vertex 1 {m}
  -14.90519, -7.21313, 3.889875,          !- X,Y,Z Vertex 2 {m}
  -14.90519, 1.304794, 8.808754;          !- X,Y,Z Vertex 3 {m}

Shading:Building:Detailed,
  aim2814,                                !- Name
  ,                                       !- Transmittance Schedule Name
  ,                                       !- Number of Vertices
  14.86854, 1.304794, 8.808754,           !- X,Y,Z Vertex 1 {m}
  13.34947, -7.21313, 3.889875,           !- X,Y,Z Vertex 2 {m}
  14.86854, -8.245606, 3.293647;          !- X,Y,Z Vertex 3 {m}

Shading:Building:Detailed,
  aim2821,                                !- Name
  ,                                       !- Transmittance Schedule Name
  ,                                       !- Number of Vertices
  13.34947, 1.304794, 8.808754,           !- X,Y,Z Vertex 1 {m}
  13.34947, -7.21313, 3.889875,           !- X,Y,Z Vertex 2 {m}
  14.86854, 1.304794, 8.808754;           !- X,Y,Z Vertex 3 {m}

Shading:Building:Detailed,
  aim2976,                                !- Name
  ,                                       !- Transmittance Schedule Name
  ,                                       !- Number of Vertices
  14.86854, 1.304794, 8.808754,           !- X,Y,Z Vertex 1 {m}
  14.86854, 10.85519, 3.293647,           !- X,Y,Z Vertex 2 {m}
  13.34947, 9.822719, 3.889875;           !- X,Y,Z Vertex 3 {m}

Shading:Building:Detailed,
  aim2983,                                !- Name
  ,                                       !- Transmittance Schedule Name
  ,                                       !- Number of Vertices
  13.34947, 9.822719, 3.889875,           !- X,Y,Z Vertex 1 {m}
  14.86854, 10.85519, 3.293647,           !- X,Y,Z Vertex 2 {m}
  -16.42426, 10.85519, 3.293647,          !- X,Y,Z Vertex 3 {m}
  -14.90519, 9.822719, 3.889875;          !- X,Y,Z Vertex 4 {m}

Shading:Building:Detailed,
  aim2991,                                !- Name
  ,                                       !- Transmittance Schedule Name
  ,                                       !- Number of Vertices
  14.86854, 1.304794, 8.808754,           !- X,Y,Z Vertex 1 {m}
  13.34947, 9.822719, 3.889875,           !- X,Y,Z Vertex 2 {m}
  13.34947, 1.304794, 8.808754;           !- X,Y,Z Vertex 3 {m}

Shading:Building:Detailed,
  aim2998,                                !- Name
  ,                                       !- Transmittance Schedule Name
  ,                                       !- Number of Vertices
  -16.42426, 1.304794, 8.808754,          !- X,Y,Z Vertex 1 {m}
  -14.90519, 9.822719, 3.889875,          !- X,Y,Z Vertex 2 {m}
  -16.42426, 10.85519, 3.293647;          !- X,Y,Z Vertex 3 {m}

Shading:Building:Detailed,
  aim3005,                                !- Name
  ,                                       !- Transmittance Schedule Name
  ,                                       !- Number of Vertices
  -14.90519, 1.304794, 8.808754,          !- X,Y,Z Vertex 1 {m}
  -14.90519, 9.822719, 3.889875,          !- X,Y,Z Vertex 2 {m}
  -16.42426, 1.304794, 8.808754;          !- X,Y,Z Vertex 3 {m}

Zone,
  Zone Corridor Zone,                     !- Name
  ,                                       !- Direction of Relative North {deg}
  ,                                       !- X Origin {m}
  ,                                       !- Y Origin {m}
  ,                                       !- Z Origin {m}
  ,                                       !- Type
  ,                                       !- Multiplier
  ,                                       !- Ceiling Height {m}
  ,                                       !- Volume {m3}
  ,                                       !- Floor Area {m2}
  ,                                       !- Zone Inside Convection Algorithm
  ;                                       !- Zone Outside Convection Algorithm

BuildingSurface:Detailed,
  aim0902,                                !- Name
  Wall,                                   !- Surface Type
  Basic Wall: Exterior - Brick on CMU,    !- Construction Name
  Zone Corridor Zone,                     !- Zone Name
  Outdoors,                               !- Outside Boundary Condition
  ,                                       !- Outside Boundary Condition Object
  SunExposed,                             !- Sun Exposure
  WindExposed,                            !- Wind Exposure
  ,                                       !- View Factor to Ground
  ,                                       !- Number of Vertices
  12.93814, 1.304794, 8.808754,           !- X,Y,Z Vertex 1 {m}
  12.93814, -0.2192058, 7.928684,         !- X,Y,Z Vertex 2 {m}
  12.93814, -0.2192058, 0,                !- X,Y,Z Vertex 3 {m}
  12.93814, 2.828794, 0,                  !- X,Y,Z Vertex 4 {m}
  12.93814, 2.828794, 7.928684;           !- X,Y,Z Vertex 5 {m}

BuildingSurface:Detailed,
  aim1646,                                !- Name
  Wall,                                   !- Surface Type
  Basic Wall: Exterior - Brick on CMU,    !- Construction Name
  Zone Corridor Zone,                     !- Zone Name
  Outdoors,                               !- Outside Boundary Condition
  ,                                       !- Outside Boundary Condition Object
  SunExposed,                             !- Sun Exposure
  WindExposed,                            !- Wind Exposure
  ,                                       !- View Factor to Ground
  ,                                       !- Number of Vertices
  -14.49386, 1.304794, 8.808754,          !- X,Y,Z Vertex 1 {m}
  -14.49386, 2.828794, 7.928684,          !- X,Y,Z Vertex 2 {m}
  -14.49386, 2.828794, 0,                 !- X,Y,Z Vertex 3 {m}
  -14.49386, 1.787394, 0,                 !- X,Y,Z Vertex 4 {m}
  -14.49386, 1.787394, 2.0574,            !- X,Y,Z Vertex 5 {m}
  -14.49386, 0.8221942, 2.0574,           !- X,Y,Z Vertex 6 {m}
  -14.49386, 0.8221942, 0,                !- X,Y,Z Vertex 7 {m}
  -14.49386, -0.2192058, 0,               !- X,Y,Z Vertex 8 {m}
  -14.49386, -0.2192058, 7.928684;        !- X,Y,Z Vertex 9 {m}

BuildingSurface:Detailed,
  aim1674,                                !- Name
  Wall,                                   !- Surface Type
  ,                                       !- Construction Name
  Zone Corridor Zone,                     !- Zone Name
  Outdoors,                               !- Outside Boundary Condition
  ,                                       !- Outside Boundary Condition Object
  SunExposed,                             !- Sun Exposure
  WindExposed,                            !- Wind Exposure
  ,                                       !- View Factor to Ground
  ,                                       !- Number of Vertices
  -14.49386, 1.787394, 2.0574,            !- X,Y,Z Vertex 1 {m}
  -14.49386, 1.787394, 0,                 !- X,Y,Z Vertex 2 {m}
  -14.49386, 0.8221942, 0,                !- X,Y,Z Vertex 3 {m}
  -14.49386, 0.8221942, 2.0574;           !- X,Y,Z Vertex 4 {m}

FenestrationSurface:Detailed,
  aim1697,                                !- Name
  GlassDoor,                              !- Surface Type
  ,                                       !- Construction Name
  aim1674,                                !- Building Surface Name
  ,                                       !- Outside Boundary Condition Object
  ,                                       !- View Factor to Ground
  ,                                       !- Shading Control Name
  ,                                       !- Frame and Divider Name
  ,                                       !- Multiplier
  ,                                       !- Number of Vertices
  -14.49386, 1.787394, 2.0574,            !- X,Y,Z Vertex 1 {m}
  -14.49386, 1.787394, 0,                 !- X,Y,Z Vertex 2 {m}
  -14.49386, 0.8221942, 0,                !- X,Y,Z Vertex 3 {m}
  -14.49386, 0.8221942, 2.0574;           !- X,Y,Z Vertex 4 {m}

BuildingSurface:Detailed,
  aim1816,                                !- Name
  Floor,                                  !- Surface Type
  Floor: Wood Truss  Joist 12" - Carpet Finish, !- Construction Name
  Zone Corridor Zone,                     !- Zone Name
  Ground,                                 !- Outside Boundary Condition
  ,                                       !- Outside Boundary Condition Object
  NoSun,                                  !- Sun Exposure
  NoWind,                                 !- Wind Exposure
  ,                                       !- View Factor to Ground
  ,                                       !- Number of Vertices
  12.93814, 2.828794, 0,                  !- X,Y,Z Vertex 1 {m}
  12.93814, -0.2192058, 0,                !- X,Y,Z Vertex 2 {m}
  -14.49386, -0.2192058, 0,               !- X,Y,Z Vertex 3 {m}
  -14.49386, 2.828794, 0;                 !- X,Y,Z Vertex 4 {m}

BuildingSurface:Detailed,
  aim2046,                                !- Name
  Wall,                                   !- Surface Type
  Basic Wall: Interior - 5" Partition (2-hr), !- Construction Name
  Zone Corridor Zone,                     !- Zone Name
  Surface,                                !- Outside Boundary Condition
  aim2046 Reversed,                       !- Outside Boundary Condition Object
  NoSun,                                  !- Sun Exposure
  NoWind,                                 !- Wind Exposure
  ,                                       !- View Factor to Ground
  ,                                       !- Number of Vertices
  12.93814, 2.828794, 7.928684,           !- X,Y,Z Vertex 1 {m}
  12.93814, 2.828794, 0,                  !- X,Y,Z Vertex 2 {m}
  8.823339, 2.828794, 0,                  !- X,Y,Z Vertex 3 {m}
  8.823339, 2.828794, 2.1336,             !- X,Y,Z Vertex 4 {m}
  7.90894, 2.828794, 2.1336,              !- X,Y,Z Vertex 5 {m}
  7.90894, 2.828794, 0,                   !- X,Y,Z Vertex 6 {m}
  3.79414, 2.828794, 0,                   !- X,Y,Z Vertex 7 {m}
  3.79414, 2.828794, 7.928684;            !- X,Y,Z Vertex 8 {m}

BuildingSurface:Detailed,
  aim2074,                                !- Name
  Wall,                                   !- Surface Type
  ,                                       !- Construction Name
  Zone Corridor Zone,                     !- Zone Name
  Surface,                                !- Outside Boundary Condition
  aim2074 Reversed,                       !- Outside Boundary Condition Object
  NoSun,                                  !- Sun Exposure
  NoWind,                                 !- Wind Exposure
  ,                                       !- View Factor to Ground
  ,                                       !- Number of Vertices
  8.823339, 2.828794, 2.1336,             !- X,Y,Z Vertex 1 {m}
  8.823339, 2.828794, 0,                  !- X,Y,Z Vertex 2 {m}
  7.90894, 2.828794, 0,                   !- X,Y,Z Vertex 3 {m}
  7.90894, 2.828794, 2.1336;              !- X,Y,Z Vertex 4 {m}

FenestrationSurface:Detailed,
  aim2097,                                !- Name
  Door,                                   !- Surface Type
  Metal,                                  !- Construction Name
  aim2074,                                !- Building Surface Name
  aim2097 Reversed,                       !- Outside Boundary Condition Object
  ,                                       !- View Factor to Ground
  ,                                       !- Shading Control Name
  ,                                       !- Frame and Divider Name
  ,                                       !- Multiplier
  ,                                       !- Number of Vertices
  8.823339, 2.828794, 2.1336,             !- X,Y,Z Vertex 1 {m}
  8.823339, 2.828794, 0,                  !- X,Y,Z Vertex 2 {m}
  7.90894, 2.828794, 0,                   !- X,Y,Z Vertex 3 {m}
  7.90894, 2.828794, 2.1336;              !- X,Y,Z Vertex 4 {m}

BuildingSurface:Detailed,
  aim2151,                                !- Name
  Wall,                                   !- Surface Type
  Basic Wall: Interior - 5" Partition (2-hr), !- Construction Name
  Zone Corridor Zone,                     !- Zone Name
  Surface,                                !- Outside Boundary Condition
  aim2151 Reversed,                       !- Outside Boundary Condition Object
  NoSun,                                  !- Sun Exposure
  NoWind,                                 !- Wind Exposure
  ,                                       !- View Factor to Ground
  ,                                       !- Number of Vertices
  3.79414, 2.828794, 7.928684,            !- X,Y,Z Vertex 1 {m}
  3.79414, 2.828794, 0,                   !- X,Y,Z Vertex 2 {m}
  -0.3206601, 2.828794, 0,                !- X,Y,Z Vertex 3 {m}
  -0.3206601, 2.828794, 2.1336,           !- X,Y,Z Vertex 4 {m}
  -1.23506, 2.828794, 2.1336,             !- X,Y,Z Vertex 5 {m}
  -1.23506, 2.828794, 0,                  !- X,Y,Z Vertex 6 {m}
  -5.34986, 2.828794, 0,                  !- X,Y,Z Vertex 7 {m}
  -5.34986, 2.828794, 7.928684;           !- X,Y,Z Vertex 8 {m}

BuildingSurface:Detailed,
  aim2179,                                !- Name
  Wall,                                   !- Surface Type
  ,                                       !- Construction Name
  Zone Corridor Zone,                     !- Zone Name
  Surface,                                !- Outside Boundary Condition
  aim2179 Reversed,                       !- Outside Boundary Condition Object
  NoSun,                                  !- Sun Exposure
  NoWind,                                 !- Wind Exposure
  ,                                       !- View Factor to Ground
  ,                                       !- Number of Vertices
  -0.3206601, 2.828794, 2.1336,           !- X,Y,Z Vertex 1 {m}
  -0.3206601, 2.828794, 0,                !- X,Y,Z Vertex 2 {m}
  -1.23506, 2.828794, 0,                  !- X,Y,Z Vertex 3 {m}
  -1.23506, 2.828794, 2.1336;             !- X,Y,Z Vertex 4 {m}

FenestrationSurface:Detailed,
  aim2202,                                !- Name
  Door,                                   !- Surface Type
  Metal,                                  !- Construction Name
  aim2179,                                !- Building Surface Name
  aim2202 Reversed,                       !- Outside Boundary Condition Object
  ,                                       !- View Factor to Ground
  ,                                       !- Shading Control Name
  ,                                       !- Frame and Divider Name
  ,                                       !- Multiplier
  ,                                       !- Number of Vertices
  -0.3206601, 2.828794, 2.1336,           !- X,Y,Z Vertex 1 {m}
  -0.3206601, 2.828794, 0,                !- X,Y,Z Vertex 2 {m}
  -1.23506, 2.828794, 0,                  !- X,Y,Z Vertex 3 {m}
  -1.23506, 2.828794, 2.1336;             !- X,Y,Z Vertex 4 {m}

BuildingSurface:Detailed,
  aim2256,                                !- Name
  Wall,                                   !- Surface Type
  Basic Wall: Interior - 5" Partition (2-hr), !- Construction Name
  Zone Corridor Zone,                     !- Zone Name
  Surface,                                !- Outside Boundary Condition
  aim2256 Reversed,                       !- Outside Boundary Condition Object
  NoSun,                                  !- Sun Exposure
  NoWind,                                 !- Wind Exposure
  ,                                       !- View Factor to Ground
  ,                                       !- Number of Vertices
  -5.34986, 2.828794, 7.928684,           !- X,Y,Z Vertex 1 {m}
  -5.34986, 2.828794, 0,                  !- X,Y,Z Vertex 2 {m}
  -9.46466, 2.828794, 0,                  !- X,Y,Z Vertex 3 {m}
  -9.46466, 2.828794, 2.1336,             !- X,Y,Z Vertex 4 {m}
  -10.37906, 2.828794, 2.1336,            !- X,Y,Z Vertex 5 {m}
  -10.37906, 2.828794, 0,                 !- X,Y,Z Vertex 6 {m}
  -14.49386, 2.828794, 0,                 !- X,Y,Z Vertex 7 {m}
  -14.49386, 2.828794, 7.928684;          !- X,Y,Z Vertex 8 {m}

BuildingSurface:Detailed,
  aim2284,                                !- Name
  Wall,                                   !- Surface Type
  ,                                       !- Construction Name
  Zone Corridor Zone,                     !- Zone Name
  Surface,                                !- Outside Boundary Condition