
OS:Version,
  {870093ab-0dcb-4c77-b73a-21cf45cb3ecb}, !- Handle
  2.5.0;                                  !- Version Identifier

OS:Schedule:Year,
  {ce2e369e-c966-4e84-8bad-fe8c3f6dd45b}, !- Handle
  Residential Lighting - All Day,         !- Name
  {3fd31180-bdcc-4cc5-98d4-4b733e31282f}, !- Schedule Type Limits Name
  12,                                     !- Month 1
  31,                                     !- Day 1
  {f67af959-5c14-4314-9311-404251013fcf}; !- Week Schedule Until Date 1

OS:ScheduleTypeLimits,
  {3fd31180-bdcc-4cc5-98d4-4b733e31282f}, !- Handle
  Fraction,                               !- Name
  ,                                       !- Lower Limit Value
  ,                                       !- Upper Limit Value
  ,                                       !- Numeric Type
  Dimensionless;                          !- Unit Type

OS:YearDescription,
  {543eb834-b3e8-49db-ae8c-80c8a29faaf2}, !- Handle
  2018,                                   !- Calendar Year
  ,                                       !- Day of Week for Start Day
  ;                                       !- Is Leap Year

OS:Schedule:Week,
  {f67af959-5c14-4314-9311-404251013fcf}, !- Handle
  Residential Lighting - All Day,         !- Name
  ,                                       !- Schedule Rendering Name
  {e250d1c0-761d-4cf5-9c79-94e2688c2d3f}, !- Sunday Schedule:Day Name
  {e250d1c0-761d-4cf5-9c79-94e2688c2d3f}, !- Monday Schedule:Day Name
  {e250d1c0-761d-4cf5-9c79-94e2688c2d3f}, !- Tuesday Schedule:Day Name
  {e250d1c0-761d-4cf5-9c79-94e2688c2d3f}, !- Wednesday Schedule:Day Name
  {e250d1c0-761d-4cf5-9c79-94e2688c2d3f}, !- Thursday Schedule:Day Name
  {e250d1c0-761d-4cf5-9c79-94e2688c2d3f}, !- Friday Schedule:Day Name
  {e250d1c0-761d-4cf5-9c79-94e2688c2d3f}, !- Saturday Schedule:Day Name
  {e250d1c0-761d-4cf5-9c79-94e2688c2d3f}, !- Holiday Schedule:Day Name
  {e250d1c0-761d-4cf5-9c79-94e2688c2d3f}, !- SummerDesignDay Schedule:Day Name
  {e250d1c0-761d-4cf5-9c79-94e2688c2d3f}, !- WinterDesignDay Schedule:Day Name
  {e250d1c0-761d-4cf5-9c79-94e2688c2d3f}, !- CustomDay1 Schedule:Day Name
  {e250d1c0-761d-4cf5-9c79-94e2688c2d3f}; !- CustomDay2 Schedule:Day Name

OS:Schedule:Day,
  {e250d1c0-761d-4cf5-9c79-94e2688c2d3f}, !- Handle
  Residential Lighting - All Day,         !- Name
  {3fd31180-bdcc-4cc5-98d4-4b733e31282f}, !- Schedule Type Limits Name
  ,                                       !- Interpolate to Timestep
  1,                                      !- Hour 1
  0,                                      !- Minute 1
  0.1,                                    !- Value Until Time 1
  2,                                      !- Hour 2
  0,                                      !- Minute 2
  0.1,                                    !- Value Until Time 2
  3,                                      !- Hour 3
  0,                                      !- Minute 3
  0.1,                                    !- Value Until Time 3
  4,                                      !- Hour 4
  0,                                      !- Minute 4
  0.1,                                    !- Value Until Time 4
  5,                                      !- Hour 5
  0,                                      !- Minute 5
  0.1,                                    !- Value Until Time 5
  6,                                      !- Hour 6
  0,                                      !- Minute 6
  0.3,                                    !- Value Until Time 6
  7,                                      !- Hour 7
  0,                                      !- Minute 7
  0.45,                                   !- Value Until Time 7
  8,                                      !- Hour 8
  0,                                      !- Minute 8
  0.45,                                   !- Value Until Time 8
  9,                                      !- Hour 9
  0,                                      !- Minute 9
  0.45,                                   !- Value Until Time 9
  10,                                     !- Hour 10
  0,                                      !- Minute 10
  0.45,                                   !- Value Until Time 10
  11,                                     !- Hour 11
  0,                                      !- Minute 11
  0.3,                                    !- Value Until Time 11
  12,                                     !- Hour 12
  0,                                      !- Minute 12
  0.3,                                    !- Value Until Time 12
  13,                                     !- Hour 13
  0,                                      !- Minute 13
  0.3,                                    !- Value Until Time 13
  14,                                     !- Hour 14
  0,                                      !- Minute 14
  0.3,                                    !- Value Until Time 14
  15,                                     !- Hour 15
  0,                                      !- Minute 15
  0.3,                                    !- Value Until Time 15
  16,                                     !- Hour 16
  0,                                      !- Minute 16
  0.3,                                    !- Value Until Time 16
  17,                                     !- Hour 17
  0,                                      !- Minute 17
  0.3,                                    !- Value Until Time 17
  18,                                     !- Hour 18
  0,                                      !- Minute 18
  0.3,                                    !- Value Until Time 18
  19,                                     !- Hour 19
  0,                                      !- Minute 19
  0.6,                                    !- Value Until Time 19
  20,                                     !- Hour 20
  0,                                      !- Minute 20
  0.8,                                    !- Value Until Time 20
  21,                                     !- Hour 21
  0,                                      !- Minute 21
  0.9,                                    !- Value Until Time 21
  22,                                     !- Hour 22
  0,                                      !- Minute 22
  0.8,                                    !- Value Until Time 22
  23,                                     !- Hour 23
  0,                                      !- Minute 23
  0.6,                                    !- Value Until Time 23
  24,                                     !- Hour 24
  0,                                      !- Minute 24
  0.3;                                    !- Value Until Time 24

OS:Schedule:Year,
  {68041498-8d32-4859-8bd2-8fe33ebd197a}, !- Handle
  Home Occupancy - 24 Hours,              !- Name
  {3fd31180-bdcc-4cc5-98d4-4b733e31282f}, !- Schedule Type Limits Name
  12,                                     !- Month 1
  31,                                     !- Day 1
  {a7faf143-c048-46f6-aef5-755c681d15dd}; !- Week Schedule Until Date 1

OS:Schedule:Week,
  {a7faf143-c048-46f6-aef5-755c681d15dd}, !- Handle
  Home Occupancy - 24 Hours,              !- Name
  ,                                       !- Schedule Rendering Name
  {2e2344e2-f58f-4318-8990-7657a45e5a5c}, !- Sunday Schedule:Day Name
  {2e2344e2-f58f-4318-8990-7657a45e5a5c}, !- Monday Schedule:Day Name
  {2e2344e2-f58f-4318-8990-7657a45e5a5c}, !- Tuesday Schedule:Day Name
  {2e2344e2-f58f-4318-8990-7657a45e5a5c}, !- Wednesday Schedule:Day Name
  {2e2344e2-f58f-4318-8990-7657a45e5a5c}, !- Thursday Schedule:Day Name
  {2e2344e2-f58f-4318-8990-7657a45e5a5c}, !- Friday Schedule:Day Name
  {2e2344e2-f58f-4318-8990-7657a45e5a5c}, !- Saturday Schedule:Day Name
  {2e2344e2-f58f-4318-8990-7657a45e5a5c}, !- Holiday Schedule:Day Name
  {2e2344e2-f58f-4318-8990-7657a45e5a5c}, !- SummerDesignDay Schedule:Day Name
  {2e2344e2-f58f-4318-8990-7657a45e5a5c}, !- WinterDesignDay Schedule:Day Name
  {2e2344e2-f58f-4318-8990-7657a45e5a5c}, !- CustomDay1 Schedule:Day Name
  {2e2344e2-f58f-4318-8990-7657a45e5a5c}; !- CustomDay2 Schedule:Day Name

OS:Schedule:Day,
  {2e2344e2-f58f-4318-8990-7657a45e5a5c}, !- Handle
  Home Occupancy - 24 Hours,              !- Name
  {3fd31180-bdcc-4cc5-98d4-4b733e31282f}, !- Schedule Type Limits Name
  ,                                       !- Interpolate to Timestep
  1,                                      !- Hour 1
  0,                                      !- Minute 1
  0.9,                                    !- Value Until Time 1
  2,                                      !- Hour 2
  0,                                      !- Minute 2
  0.9,                                    !- Value Until Time 2
  3,                                      !- Hour 3
  0,                                      !- Minute 3
  0.9,                                    !- Value Until Time 3
  4,                                      !- Hour 4
  0,                                      !- Minute 4
  0.9,                                    !- Value Until Time 4
  5,                                      !- Hour 5
  0,                                      !- Minute 5
  0.9,                                    !- Value Until Time 5
  6,                                      !- Hour 6
  0,                                      !- Minute 6
  0.9,                                    !- Value Until Time 6
  7,                                      !- Hour 7
  0,                                      !- Minute 7
  0.7,                                    !- Value Until Time 7
  8,                                      !- Hour 8
  0,                                      !- Minute 8
  0.4,                                    !- Value Until Time 8
  9,                                      !- Hour 9
  0,                                      !- Minute 9
  0.4,                                    !- Value Until Time 9
  10,                                     !- Hour 10
  0,                                      !- Minute 10
  0.2,                                    !- Value Until Time 10
  11,                                     !- Hour 11
  0,                                      !- Minute 11
  0.2,                                    !- Value Until Time 11
  12,                                     !- Hour 12
  0,                                      !- Minute 12
  0.2,                                    !- Value Until Time 12
  13,                                     !- Hour 13
  0,                                      !- Minute 13
  0.2,                                    !- Value Until Time 13
  14,                                     !- Hour 14
  0,                                      !- Minute 14
  0.2,                                    !- Value Until Time 14
  15,                                     !- Hour 15
  0,                                      !- Minute 15
  0.2,                                    !- Value Until Time 15
  16,                                     !- Hour 16
  0,                                      !- Minute 16
  0.3,                                    !- Value Until Time 16
  17,                                     !- Hour 17
  0,                                      !- Minute 17
  0.5,                                    !- Value Until Time 17
  18,                                     !- Hour 18
  0,                                      !- Minute 18
  0.5,                                    !- Value Until Time 18
  19,                                     !- Hour 19
  0,                                      !- Minute 19
  0.5,                                    !- Value Until Time 19
  20,                                     !- Hour 20
  0,                                      !- Minute 20
  0.7,                                    !- Value Until Time 20
  21,                                     !- Hour 21
  0,                                      !- Minute 21
  0.7,                                    !- Value Until Time 21
  22,                                     !- Hour 22
  0,                                      !- Minute 22
  0.8,                                    !- Value Until Time 22
  23,                                     !- Hour 23
  0,                                      !- Minute 23
  0.9,                                    !- Value Until Time 23
  24,                                     !- Hour 24
  0,                                      !- Minute 24
  0.9;                                    !- Value Until Time 24

OS:ThermalZone,
  {a06bd704-a824-48df-8a38-eb4a15ad4942}, !- Handle
  Zone Default,                           !- Name
  ,                                       !- Multiplier
  ,                                       !- Ceiling Height {m}
  ,                                       !- Volume {m3}
  ,                                       !- Floor Area {m2}
  ,                                       !- Zone Inside Convection Algorithm
  ,                                       !- Zone Outside Convection Algorithm
  ,                                       !- Zone Conditioning Equipment List Name
  {39c59e72-2112-4901-8138-a239bb92b5d6}, !- Zone Air Inlet Port List
  {687c6f17-8e7a-48b7-bc26-49ddcd331a35}, !- Zone Air Exhaust Port List
  {3d6a5759-7588-41b5-ac5f-ad1f829da354}, !- Zone Air Node Name
  ,                                       !- Zone Return Air Node Name
  ,                                       !- Primary Daylighting Control Name
  ,                                       !- Fraction of Zone Controlled by Primary Daylighting Control
  ,                                       !- Secondary Daylighting Control Name
  ,                                       !- Fraction of Zone Controlled by Secondary Daylighting Control
  ,                                       !- Illuminance Map Name
  {e80aadff-138d-4ba4-94cd-23ccfc203f86}, !- Group Rendering Name
  ,                                       !- Thermostat Name
  No;                                     !- Use Ideal Air Loads

OS:Node,
  {af3b9e57-2b4e-4e32-b6f0-368c0e7529a3}, !- Handle
  {787ced56-0653-430b-a932-e894915bdbc4}, !- Name
  {3d6a5759-7588-41b5-ac5f-ad1f829da354}, !- Inlet Port
  ;                                       !- Outlet Port

OS:Connection,
  {3d6a5759-7588-41b5-ac5f-ad1f829da354}, !- Handle
  {f619db65-0d23-45d2-8bc8-ba6de6774d62}, !- Name
  {a06bd704-a824-48df-8a38-eb4a15ad4942}, !- Source Object
  11,                                     !- Outlet Port
  {af3b9e57-2b4e-4e32-b6f0-368c0e7529a3}, !- Target Object
  2;                                      !- Inlet Port

OS:PortList,
  {39c59e72-2112-4901-8138-a239bb92b5d6}, !- Handle
  {c81fb577-ed1e-4652-8162-e05c5b2db2a5}, !- Name
  {a06bd704-a824-48df-8a38-eb4a15ad4942}; !- HVAC Component

OS:PortList,
  {687c6f17-8e7a-48b7-bc26-49ddcd331a35}, !- Handle
  {174701fd-33f1-4aba-bf7c-a1e43ab2b09f}, !- Name
  {a06bd704-a824-48df-8a38-eb4a15ad4942}; !- HVAC Component

OS:Sizing:Zone,
  {0efb9be2-faf8-40fd-9a4d-66f54a69b3c9}, !- Handle
  {a06bd704-a824-48df-8a38-eb4a15ad4942}, !- Zone or ZoneList Name
  SupplyAirTemperature,                   !- Zone Cooling Design Supply Air Temperature Input Method
  14,                                     !- Zone Cooling Design Supply Air Temperature {C}
  11.11,                                  !- Zone Cooling Design Supply Air Temperature Difference {deltaC}
  SupplyAirTemperature,                   !- Zone Heating Design Supply Air Temperature Input Method
  40,                                     !- Zone Heating Design Supply Air Temperature {C}
  11.11,                                  !- Zone Heating Design Supply Air Temperature Difference {deltaC}
  0.0085,                                 !- Zone Cooling Design Supply Air Humidity Ratio {kg-H2O/kg-air}
  0.008,                                  !- Zone Heating Design Supply Air Humidity Ratio {kg-H2O/kg-air}
  ,                                       !- Zone Heating Sizing Factor
  ,                                       !- Zone Cooling Sizing Factor
  DesignDay,                              !- Cooling Design Air Flow Method
  ,                                       !- Cooling Design Air Flow Rate {m3/s}
  ,                                       !- Cooling Minimum Air Flow per Zone Floor Area {m3/s-m2}
  ,                                       !- Cooling Minimum Air Flow {m3/s}
  ,                                       !- Cooling Minimum Air Flow Fraction
  DesignDay,                              !- Heating Design Air Flow Method
  ,                                       !- Heating Design Air Flow Rate {m3/s}
  ,                                       !- Heating Maximum Air Flow per Zone Floor Area {m3/s-m2}
  ,                                       !- Heating Maximum Air Flow {m3/s}
  ,                                       !- Heating Maximum Air Flow Fraction
  ,                                       !- Design Zone Air Distribution Effectiveness in Cooling Mode
  ,                                       !- Design Zone Air Distribution Effectiveness in Heating Mode
  No,                                     !- Account for Dedicated Outdoor Air System
  NeutralSupplyAir,                       !- Dedicated Outdoor Air System Control Strategy
  autosize,                               !- Dedicated Outdoor Air Low Setpoint Temperature for Design {C}
  autosize;                               !- Dedicated Outdoor Air High Setpoint Temperature for Design {C}

OS:ZoneHVAC:EquipmentList,
  {9de9c518-e3b8-443e-9f88-1c332d35f1d1}, !- Handle
  {555772b0-592c-4722-87f4-4b1cb5f3a7b9}, !- Name
  {a06bd704-a824-48df-8a38-eb4a15ad4942}; !- Thermal Zone

OS:ThermalZone,
  {92abd9cf-504b-4744-9d2d-31d68c28e3a5}, !- Handle
  {dda76d41-9bbf-4308-b42b-2c27ef33262a}, !- Name
  ,                                       !- Multiplier
  ,                                       !- Ceiling Height {m}
  ,                                       !- Volume {m3}
  ,                                       !- Floor Area {m2}
  ,                                       !- Zone Inside Convection Algorithm
  ,                                       !- Zone Outside Convection Algorithm
  ,                                       !- Zone Conditioning Equipment List Name
  {11e14f8c-9fa2-4d90-9a1d-cbdc0eb2620f}, !- Zone Air Inlet Port List
  {d1b7faee-5ad2-4810-bdbd-299abdfeebde}, !- Zone Air Exhaust Port List
  {6f007f92-60a9-45f9-87e6-2eb7242fc54c}, !- Zone Air Node Name
  ,                                       !- Zone Return Air Node Name
  ,                                       !- Primary Daylighting Control Name
  ,                                       !- Fraction of Zone Controlled by Primary Daylighting Control
  ,                                       !- Secondary Daylighting Control Name
  ,                                       !- Fraction of Zone Controlled by Secondary Daylighting Control
  ,                                       !- Illuminance Map Name
  {acb4e619-eae2-4bff-966a-85d8d7d0bd0a}, !- Group Rendering Name
  ,                                       !- Thermostat Name
  No;                                     !- Use Ideal Air Loads

OS:Node,
  {c5dac596-e2ec-48a2-b0c1-551202c53444}, !- Handle
  {8ca7f149-60eb-4bc7-8277-dcf28171f0c9}, !- Name
  {6f007f92-60a9-45f9-87e6-2eb7242fc54c}, !- Inlet Port
  ;                                       !- Outlet Port

OS:Connection,
  {6f007f92-60a9-45f9-87e6-2eb7242fc54c}, !- Handle
  {b380b56c-f409-42f7-b9f1-b47db58c9ee3}, !- Name
  {92abd9cf-504b-4744-9d2d-31d68c28e3a5}, !- Source Object
  11,                                     !- Outlet Port
  {c5dac596-e2ec-48a2-b0c1-551202c53444}, !- Target Object
  2;                                      !- Inlet Port

OS:PortList,
  {11e14f8c-9fa2-4d90-9a1d-cbdc0eb2620f}, !- Handle
  {294f43fe-0e5b-4ece-ac0e-693b26fdb3db}, !- Name
  {92abd9cf-504b-4744-9d2d-31d68c28e3a5}; !- HVAC Component

OS:PortList,
  {d1b7faee-5ad2-4810-bdbd-299abdfeebde}, !- Handle
  {098e0fc8-d9a1-449c-901e-6f6750bddd88}, !- Name
  {92abd9cf-504b-4744-9d2d-31d68c28e3a5}; !- HVAC Component

OS:Sizing:Zone,
  {816c1055-4224-4e05-8291-d0476b0b5339}, !- Handle
  {92abd9cf-504b-4744-9d2d-31d68c28e3a5}, !- Zone or ZoneList Name
  SupplyAirTemperature,                   !- Zone Cooling Design Supply Air Temperature Input Method
  14,                                     !- Zone Cooling Design Supply Air Temperature {C}
  11.11,                                  !- Zone Cooling Design Supply Air Temperature Difference {deltaC}
  SupplyAirTemperature,                   !- Zone Heating Design Supply Air Temperature Input Method
  40,                                     !- Zone Heating Design Supply Air Temperature {C}
  11.11,                                  !- Zone Heating Design Supply Air Temperature Difference {deltaC}
  0.0085,                                 !- Zone Cooling Design Supply Air Humidity Ratio {kg-H2O/kg-air}
  0.008,                                  !- Zone Heating Design Supply Air Humidity Ratio {kg-H2O/kg-air}
  ,                                       !- Zone Heating Sizing Factor
  ,                                       !- Zone Cooling Sizing Factor
  DesignDay,                              !- Cooling Design Air Flow Method
  ,                                       !- Cooling Design Air Flow Rate {m3/s}
  ,                                       !- Cooling Minimum Air Flow per Zone Floor Area {m3/s-m2}
  ,                                       !- Cooling Minimum Air Flow {m3/s}
  ,                                       !- Cooling Minimum Air Flow Fraction
  DesignDay,                              !- Heating Design Air Flow Method
  ,                                       !- Heating Design Air Flow Rate {m3/s}
  ,                                       !- Heating Maximum Air Flow per Zone Floor Area {m3/s-m2}
  ,                                       !- Heating Maximum Air Flow {m3/s}
  ,                                       !- Heating Maximum Air Flow Fraction
  ,                                       !- Design Zone Air Distribution Effectiveness in Cooling Mode
  ,                                       !- Design Zone Air Distribution Effectiveness in Heating Mode
  No,                                     !- Account for Dedicated Outdoor Air System
  NeutralSupplyAir,                       !- Dedicated Outdoor Air System Control Strategy
  autosize,                               !- Dedicated Outdoor Air Low Setpoint Temperature for Design {C}
  autosize;                               !- Dedicated Outdoor Air High Setpoint Temperature for Design {C}

OS:ZoneHVAC:EquipmentList,
  {30da5d83-3482-4598-a4a8-f2cef53a7d22}, !- Handle
  {589932a6-8503-42ea-900e-efad08bfae2c}, !- Name
  {92abd9cf-504b-4744-9d2d-31d68c28e3a5}; !- Thermal Zone

OS:ThermalZone,
  {7e349741-4f42-45bb-909d-3d33c3b024e7}, !- Handle
  {e76b0e36-c175-402a-a3ea-de9f5f5caae8}, !- Name
  ,                                       !- Multiplier
  ,                                       !- Ceiling Height {m}
  ,                                       !- Volume {m3}
  ,                                       !- Floor Area {m2}
  ,                                       !- Zone Inside Convection Algorithm
  ,                                       !- Zone Outside Convection Algorithm
  ,                                       !- Zone Conditioning Equipment List Name
  {34724d10-a867-4a03-b8ca-201add3dcf53}, !- Zone Air Inlet Port List
  {e71b55fa-e833-42d8-b045-b863e54493d7}, !- Zone Air Exhaust Port List
  {02819337-915a-4e9d-9775-80926e6afbf2}, !- Zone Air Node Name
  ,                                       !- Zone Return Air Node Name
  ,                                       !- Primary Daylighting Control Name
  ,                                       !- Fraction of Zone Controlled by Primary Daylighting Control
  ,                                       !- Secondary Daylighting Control Name
  ,                                       !- Fraction of Zone Controlled by Secondary Daylighting Control
  ,                                       !- Illuminance Map Name
  {ac377b84-2e43-466d-b7ee-47d65cf08a5a}, !- Group Rendering Name
  ,                                       !- Thermostat Name
  No;                                     !- Use Ideal Air Loads

OS:Node,
  {97518cdd-7ef7-458d-b63d-4314f65d20e3}, !- Handle
  {19eb3b83-a102-4c4a-a542-2ddc92de0c36}, !- Name
  {02819337-915a-4e9d-9775-80926e6afbf2}, !- Inlet Port
  ;                                       !- Outlet Port

OS:Connection,
  {02819337-915a-4e9d-9775-80926e6afbf2}, !- Handle
  {5da8312c-0ea7-427f-a97b-8f9af729d16b}, !- Name
  {7e349741-4f42-45bb-909d-3d33c3b024e7}, !- Source Object
  11,                                     !- Outlet Port
  {97518cdd-7ef7-458d-b63d-4314f65d20e3}, !- Target Object
  2;                                      !- Inlet Port

OS:PortList,
  {34724d10-a867-4a03-b8ca-201add3dcf53}, !- Handle
  {55a8315e-1dee-4b05-a5fe-92e7605056f8}, !- Name
  {7e349741-4f42-45bb-909d-3d33c3b024e7}; !- HVAC Component

OS:PortList,
  {e71b55fa-e833-42d8-b045-b863e54493d7}, !- Handle
  {9ae04ef4-f380-4493-a5b2-84118260d386}, !- Name
  {7e349741-4f42-45bb-909d-3d33c3b024e7}; !- HVAC Component

OS:Sizing:Zone,
  {ce1dc8cb-dc9a-4a07-bf1e-5a8ac7f470a4}, !- Handle
  {7e349741-4f42-45bb-909d-3d33c3b024e7}, !- Zone or ZoneList Name
  SupplyAirTemperature,                   !- Zone Cooling Design Supply Air Temperature Input Method
  14,                                     !- Zone Cooling Design Supply Air Temperature {C}
  11.11,                                  !- Zone Cooling Design Supply Air Temperature Difference {deltaC}
  SupplyAirTemperature,                   !- Zone Heating Design Supply Air Temperature Input Method
  40,                                     !- Zone Heating Design Supply Air Temperature {C}
  11.11,                                  !- Zone Heating Design Supply Air Temperature Difference {deltaC}
  0.0085,                                 !- Zone Cooling Design Supply Air Humidity Ratio {kg-H2O/kg-air}
  0.008,                                  !- Zone Heating Design Supply Air Humidity Ratio {kg-H2O/kg-air}
  ,                                       !- Zone Heating Sizing Factor
  ,                                       !- Zone Cooling Sizing Factor
  DesignDay,                              !- Cooling Design Air Flow Method
  ,                                       !- Cooling Design Air Flow Rate {m3/s}
  ,                                       !- Cooling Minimum Air Flow per Zone Floor Area {m3/s-m2}
  ,                                       !- Cooling Minimum Air Flow {m3/s}
  ,                                       !- Cooling Minimum Air Flow Fraction
  DesignDay,                              !- Heating Design Air Flow Method
  ,                                       !- Heating Design Air Flow Rate {m3/s}
  ,                                       !- Heating Maximum Air Flow per Zone Floor Area {m3/s-m2}
  ,                                       !- Heating Maximum Air Flow {m3/s}
  ,                                       !- Heating Maximum Air Flow Fraction
  ,                                       !- Design Zone Air Distribution Effectiveness in Cooling Mode
  ,                                       !- Design Zone Air Distribution Effectiveness in Heating Mode
  No,                                     !- Account for Dedicated Outdoor Air System
  NeutralSupplyAir,                       !- Dedicated Outdoor Air System Control Strategy
  autosize,                               !- Dedicated Outdoor Air Low Setpoint Temperature for Design {C}
  autosize;                               !- Dedicated Outdoor Air High Setpoint Temperature for Design {C}

OS:ZoneHVAC:EquipmentList,
  {85737645-5a6f-4a4d-b998-bf5db9889231}, !- Handle
  {c38b35b9-7f4c-41f4-876e-e7595a84444d}, !- Name
  {7e349741-4f42-45bb-909d-3d33c3b024e7}; !- Thermal Zone

OS:ThermalZone,
  {22a90486-0918-4ba4-b681-eb783909eb6e}, !- Handle
  {441c85ec-5df4-4a5d-a1b7-51ee2f243eba}, !- Name
  ,                                       !- Multiplier
  ,                                       !- Ceiling Height {m}
  ,                                       !- Volume {m3}
  ,                                       !- Floor Area {m2}
  ,                                       !- Zone Inside Convection Algorithm
  ,                                       !- Zone Outside Convection Algorithm
  ,                                       !- Zone Conditioning Equipment List Name
  {6cfc82b4-50a4-4ef8-8611-edf8b8d469d6}, !- Zone Air Inlet Port List
  {e4107d92-119a-4955-89fd-cca67ca7084e}, !- Zone Air Exhaust Port List
  {337d463b-8406-4862-a48a-615fdaae08a2}, !- Zone Air Node Name
  ,                                       !- Zone Return Air Node Name
  ,                                       !- Primary Daylighting Control Name
  ,                                       !- Fraction of Zone Controlled by Primary Daylighting Control
  ,                                       !- Secondary Daylighting Control Name
  ,                                       !- Fraction of Zone Controlled by Secondary Daylighting Control
  ,                                       !- Illuminance Map Name
  {c95d10b7-8d8f-4b4f-9f1c-fd0f7e765b54}, !- Group Rendering Name
  ,                                       !- Thermostat Name
  No;                                     !- Use Ideal Air Loads

OS:Node,
  {869a2c19-d9fd-446c-b10c-db19081d2be6}, !- Handle
  {90f90b94-e214-4ec4-996b-3d34e7ab473e}, !- Name
  {337d463b-8406-4862-a48a-615fdaae08a2}, !- Inlet Port
  ;                                       !- Outlet Port

OS:Connection,
  {337d463b-8406-4862-a48a-615fdaae08a2}, !- Handle
  {9c2f484c-789a-43a8-917c-4df64728c6ab}, !- Name
  {22a90486-0918-4ba4-b681-eb783909eb6e}, !- Source Object
  11,                                     !- Outlet Port
  {869a2c19-d9fd-446c-b10c-db19081d2be6}, !- Target Object
  2;                                      !- Inlet Port

OS:PortList,
  {6cfc82b4-50a4-4ef8-8611-edf8b8d469d6}, !- Handle
  {246b46c6-bd73-46cd-9b44-af09005e6c36}, !- Name