
OS:Version,
  {64663e86-baa5-4270-902a-f74c439ccc77}, !- Handle
  2.5.0;                                  !- Version Identifier

OS:Facility,
  {e62ecaa8-0c2d-4703-bd47-dbedffdff00a}; !- Handle

OS:Building,
  {e09ddf9a-6a35-44a5-9ff8-a7bbf5636ad6}, !- Handle
  bldg-1,                                 !- Name
  ,                                       !- Building Sector Type
  ,                                       !- North Axis {deg}
  ,                                       !- Nominal Floor to Floor Height {m}
  ,                                       !- Space Type Name
  ,                                       !- Default Construction Set Name
  ,                                       !- Default Schedule Set Name
  ,                                       !- Standards Number of Stories
  ,                                       !- Standards Number of Above Ground Stories
  ,                                       !- Standards Building Type
  ,                                       !- Standards Number of Living Units
  ,                                       !- Relocatable
  ;                                       !- Nominal Floor to Ceiling Height {m}

OS:BuildingStory,
  {a37c5a4a-f232-4112-9586-2d035d1302c9}, !- Handle
  Level 1,                                !- Name
  ,                                       !- Nominal Z Coordinate {m}
  ,                                       !- Nominal Floor to Floor Height {m}
  ,                                       !- Default Construction Set Name
  ,                                       !- Default Schedule Set Name
  {2eb749e7-bdaf-4653-91c3-2778416c4b7e}; !- Group Rendering Name

OS:Space,
  {9567a4c0-af38-4946-8535-376d2b17cddc}, !- Handle
  1 Dining,                               !- Name
  ,                                       !- Space Type Name
  ,                                       !- Default Construction Set Name
  ,                                       !- Default Schedule Set Name
  ,                                       !- Direction of Relative North {deg}
  ,                                       !- X Origin {m}
  ,                                       !- Y Origin {m}
  ,                                       !- Z Origin {m}
  {a37c5a4a-f232-4112-9586-2d035d1302c9}, !- Building Story Name
  {1b7aa9e6-c139-44d2-b39e-9ce348f72c3d}, !- Thermal Zone Name
  ,                                       !- Part of Total Floor Area
  ,                                       !- Design Specification Outdoor Air Object Name
  ;                                       !- Building Unit Name

OS:ThermalZone,
  {1b7aa9e6-c139-44d2-b39e-9ce348f72c3d}, !- Handle
  1 Dining ThermalZone,                   !- Name
  ,                                       !- Multiplier
  ,                                       !- Ceiling Height {m}
  ,                                       !- Volume {m3}
  ,                                       !- Floor Area {m2}
  ,                                       !- Zone Inside Convection Algorithm
  ,                                       !- Zone Outside Convection Algorithm
  ,                                       !- Zone Conditioning Equipment List Name
  {7942d2ae-701f-4716-9895-55a88f9999fa}, !- Zone Air Inlet Port List
  {c14aa3b2-0853-48fa-9c79-176c3311e517}, !- Zone Air Exhaust Port List
  {577e43d9-9610-4ace-aa8e-eb92f8e9f0b2}, !- Zone Air Node Name
  ,                                       !- Zone Return Air Node Name
  ,                                       !- Primary Daylighting Control Name
  ,                                       !- Fraction of Zone Controlled by Primary Daylighting Control
  ,                                       !- Secondary Daylighting Control Name
  ,                                       !- Fraction of Zone Controlled by Secondary Daylighting Control
  ,                                       !- Illuminance Map Name
  {64b3323a-b306-452e-8d39-aee9b0d21c6d}, !- Group Rendering Name
  ,                                       !- Thermostat Name
  No;                                     !- Use Ideal Air Loads

OS:Node,
  {ca6cd604-41a7-4092-aaaf-9f79b792489d}, !- Handle
  {12e762eb-e241-42fc-9e41-7f873d1bf50b}, !- Name
  {577e43d9-9610-4ace-aa8e-eb92f8e9f0b2}, !- Inlet Port
  ;                                       !- Outlet Port

OS:Connection,
  {577e43d9-9610-4ace-aa8e-eb92f8e9f0b2}, !- Handle
  {ae9527d3-f45d-484c-8f54-6e2ab526b62a}, !- Name
  {1b7aa9e6-c139-44d2-b39e-9ce348f72c3d}, !- Source Object
  11,                                     !- Outlet Port
  {ca6cd604-41a7-4092-aaaf-9f79b792489d}, !- Target Object
  2;                                      !- Inlet Port

OS:PortList,
  {7942d2ae-701f-4716-9895-55a88f9999fa}, !- Handle
  {ec982a4c-285b-46a4-8c33-2257c0720a1a}, !- Name
  {1b7aa9e6-c139-44d2-b39e-9ce348f72c3d}; !- HVAC Component

OS:PortList,
  {c14aa3b2-0853-48fa-9c79-176c3311e517}, !- Handle
  {376d464c-8203-4284-b12e-3b9764f09d5c}, !- Name
  {1b7aa9e6-c139-44d2-b39e-9ce348f72c3d}; !- HVAC Component

OS:Sizing:Zone,
  {7878978e-6e8a-419d-a75c-25b342cdd0fc}, !- Handle
  {1b7aa9e6-c139-44d2-b39e-9ce348f72c3d}, !- Zone or ZoneList Name
  SupplyAirTemperature,                   !- Zone Cooling Design Supply Air Temperature Input Method
  14,                                     !- Zone Cooling Design Supply Air Temperature {C}
  11.11,                                  !- Zone Cooling Design Supply Air Temperature Difference {deltaC}
  SupplyAirTemperature,                   !- Zone Heating Design Supply Air Temperature Input Method
  40,                                     !- Zone Heating Design Supply Air Temperature {C}
  11.11,                                  !- Zone Heating Design Supply Air Temperature Difference {deltaC}
  0.0085,                                 !- Zone Cooling Design Supply Air Humidity Ratio {kg-H2O/kg-air}
  0.008,                                  !- Zone Heating Design Supply Air Humidity Ratio {kg-H2O/kg-air}
  ,                                       !- Zone Heating Sizing Factor
  ,                                       !- Zone Cooling Sizing Factor
  DesignDay,                              !- Cooling Design Air Flow Method
  ,                                       !- Cooling Design Air Flow Rate {m3/s}
  ,                                       !- Cooling Minimum Air Flow per Zone Floor Area {m3/s-m2}
  ,                                       !- Cooling Minimum Air Flow {m3/s}
  ,                                       !- Cooling Minimum Air Flow Fraction
  DesignDay,                              !- Heating Design Air Flow Method
  ,                                       !- Heating Design Air Flow Rate {m3/s}
  ,                                       !- Heating Maximum Air Flow per Zone Floor Area {m3/s-m2}
  ,                                       !- Heating Maximum Air Flow {m3/s}
  ,                                       !- Heating Maximum Air Flow Fraction
  ,                                       !- Design Zone Air Distribution Effectiveness in Cooling Mode
  ,                                       !- Design Zone Air Distribution Effectiveness in Heating Mode
  No,                                     !- Account for Dedicated Outdoor Air System
  NeutralSupplyAir,                       !- Dedicated Outdoor Air System Control Strategy
  autosize,                               !- Dedicated Outdoor Air Low Setpoint Temperature for Design {C}
  autosize;                               !- Dedicated Outdoor Air High Setpoint Temperature for Design {C}

OS:ZoneHVAC:EquipmentList,
  {19c40938-0da5-4267-bfd0-596c34258ac5}, !- Handle
  {b8a1dcbe-0958-4042-8b16-3e87cdee2449}, !- Name
  {1b7aa9e6-c139-44d2-b39e-9ce348f72c3d}; !- Thermal Zone

OS:Space,
  {26fbdc27-9c14-4240-aa8d-3b7500ba99c5}, !- Handle
  2 Kitchen,                              !- Name
  ,                                       !- Space Type Name
  ,                                       !- Default Construction Set Name
  ,                                       !- Default Schedule Set Name
  ,                                       !- Direction of Relative North {deg}
  ,                                       !- X Origin {m}
  ,                                       !- Y Origin {m}
  ,                                       !- Z Origin {m}
  {a37c5a4a-f232-4112-9586-2d035d1302c9}, !- Building Story Name
  {d28e9103-c3fb-4ed6-9a5b-11cb3c65231a}; !- Thermal Zone Name

OS:ThermalZone,
  {d28e9103-c3fb-4ed6-9a5b-11cb3c65231a}, !- Handle
  2 Kitchen ThermalZone,                  !- Name
  ,                                       !- Multiplier
  ,                                       !- Ceiling Height {m}
  ,                                       !- Volume {m3}
  ,                                       !- Floor Area {m2}
  ,                                       !- Zone Inside Convection Algorithm
  ,                                       !- Zone Outside Convection Algorithm
  ,                                       !- Zone Conditioning Equipment List Name
  {4bf535ac-1718-471d-91b6-dc30f49efe42}, !- Zone Air Inlet Port List
  {e400b9c1-7fea-45d5-b436-04bc6540f516}, !- Zone Air Exhaust Port List
  {72d48533-ca0f-4cab-b5a4-664d82f6ef2b}, !- Zone Air Node Name
  ,                                       !- Zone Return Air Node Name
  ,                                       !- Primary Daylighting Control Name
  ,                                       !- Fraction of Zone Controlled by Primary Daylighting Control
  ,                                       !- Secondary Daylighting Control Name
  ,                                       !- Fraction of Zone Controlled by Secondary Daylighting Control
  ,                                       !- Illuminance Map Name
  {d4604a82-b2aa-47dc-8e12-c0b23130432a}, !- Group Rendering Name
  ,                                       !- Thermostat Name
  No;                                     !- Use Ideal Air Loads

OS:Node,
  {bb58f3c2-d91d-4c9d-89e8-4be741e0ce2a}, !- Handle
  {a7d1a082-3354-4590-be19-0a6c7dc02d90}, !- Name
  {72d48533-ca0f-4cab-b5a4-664d82f6ef2b}, !- Inlet Port
  ;                                       !- Outlet Port

OS:Connection,
  {72d48533-ca0f-4cab-b5a4-664d82f6ef2b}, !- Handle
  {b2b9d3e4-191b-4006-8768-35ac68a48b59}, !- Name
  {d28e9103-c3fb-4ed6-9a5b-11cb3c65231a}, !- Source Object
  11,                                     !- Outlet Port
  {bb58f3c2-d91d-4c9d-89e8-4be741e0ce2a}, !- Target Object
  2;                                      !- Inlet Port

OS:PortList,
  {4bf535ac-1718-471d-91b6-dc30f49efe42}, !- Handle
  {9b04ded6-cb9d-49f6-a01e-12660431eb80}, !- Name
  {d28e9103-c3fb-4ed6-9a5b-11cb3c65231a}; !- HVAC Component

OS:PortList,
  {e400b9c1-7fea-45d5-b436-04bc6540f516}, !- Handle
  {ec1562a6-cad4-49fc-b260-757cdcaeb43c}, !- Name
  {d28e9103-c3fb-4ed6-9a5b-11cb3c65231a}; !- HVAC Component

OS:Sizing:Zone,
  {1ed2f0c9-4df7-40bd-8ff1-3d8caed48bb9}, !- Handle
  {d28e9103-c3fb-4ed6-9a5b-11cb3c65231a}, !- Zone or ZoneList Name
  SupplyAirTemperature,                   !- Zone Cooling Design Supply Air Temperature Input Method
  14,                                     !- Zone Cooling Design Supply Air Temperature {C}
  11.11,                                  !- Zone Cooling Design Supply Air Temperature Difference {deltaC}
  SupplyAirTemperature,                   !- Zone Heating Design Supply Air Temperature Input Method
  40,                                     !- Zone Heating Design Supply Air Temperature {C}
  11.11,                                  !- Zone Heating Design Supply Air Temperature Difference {deltaC}
  0.0085,                                 !- Zone Cooling Design Supply Air Humidity Ratio {kg-H2O/kg-air}
  0.008,                                  !- Zone Heating Design Supply Air Humidity Ratio {kg-H2O/kg-air}
  ,                                       !- Zone Heating Sizing Factor
  ,                                       !- Zone Cooling Sizing Factor
  DesignDay,                              !- Cooling Design Air Flow Method
  ,                                       !- Cooling Design Air Flow Rate {m3/s}
  ,                                       !- Cooling Minimum Air Flow per Zone Floor Area {m3/s-m2}
  ,                                       !- Cooling Minimum Air Flow {m3/s}
  ,                                       !- Cooling Minimum Air Flow Fraction
  DesignDay,                              !- Heating Design Air Flow Method
  ,                                       !- Heating Design Air Flow Rate {m3/s}
  ,                                       !- Heating Maximum Air Flow per Zone Floor Area {m3/s-m2}
  ,                                       !- Heating Maximum Air Flow {m3/s}
  ,                                       !- Heating Maximum Air Flow Fraction
  ,                                       !- Design Zone Air Distribution Effectiveness in Cooling Mode
  ,                                       !- Design Zone Air Distribution Effectiveness in Heating Mode
  No,                                     !- Account for Dedicated Outdoor Air System
  NeutralSupplyAir,                       !- Dedicated Outdoor Air System Control Strategy
  autosize,                               !- Dedicated Outdoor Air Low Setpoint Temperature for Design {C}
  autosize;                               !- Dedicated Outdoor Air High Setpoint Temperature for Design {C}

OS:ZoneHVAC:EquipmentList,
  {07c0f4c6-c3b6-4d50-b7eb-2acaf0f507b7}, !- Handle
  {8a09c4bf-f749-4d03-9f84-51c6ced4828a}, !- Name
  {d28e9103-c3fb-4ed6-9a5b-11cb3c65231a}; !- Thermal Zone

OS:Space,
  {76c2b46b-86e4-46c4-9218-cb82a5f7fdc8}, !- Handle
  3 Bedroom,                              !- Name
  ,                                       !- Space Type Name
  ,                                       !- Default Construction Set Name
  ,                                       !- Default Schedule Set Name
  ,                                       !- Direction of Relative North {deg}
  ,                                       !- X Origin {m}
  ,                                       !- Y Origin {m}
  ,                                       !- Z Origin {m}
  {a37c5a4a-f232-4112-9586-2d035d1302c9}, !- Building Story Name
  {1b5803a0-295f-4828-bd01-9dc3e85c0ba9}; !- Thermal Zone Name

OS:ThermalZone,
  {1b5803a0-295f-4828-bd01-9dc3e85c0ba9}, !- Handle
  3 Bedroom ThermalZone,                  !- Name
  ,                                       !- Multiplier
  ,                                       !- Ceiling Height {m}
  ,                                       !- Volume {m3}
  ,                                       !- Floor Area {m2}
  ,                                       !- Zone Inside Convection Algorithm
  ,                                       !- Zone Outside Convection Algorithm
  ,                                       !- Zone Conditioning Equipment List Name
  {8ddf0f03-5c11-4b82-971a-cdc71dde22af}, !- Zone Air Inlet Port List
  {4bbc0e25-ef60-4e28-aa42-c30f5cb7ba53}, !- Zone Air Exhaust Port List
  {f7d28e5b-021e-4537-9f7a-fcc6d6d7aeeb}, !- Zone Air Node Name
  ,                                       !- Zone Return Air Node Name
  ,                                       !- Primary Daylighting Control Name
  ,                                       !- Fraction of Zone Controlled by Primary Daylighting Control
  ,                                       !- Secondary Daylighting Control Name
  ,                                       !- Fraction of Zone Controlled by Secondary Daylighting Control
  ,                                       !- Illuminance Map Name
  {56345d93-335b-4dba-9181-a42fcdf7ab0b}, !- Group Rendering Name
  ,                                       !- Thermostat Name
  No;                                     !- Use Ideal Air Loads

OS:Node,
  {2e75061f-857a-4a61-ac7b-320b156f40ba}, !- Handle
  {6ff830d7-b1a1-4167-b3a7-317d617c913c}, !- Name
  {f7d28e5b-021e-4537-9f7a-fcc6d6d7aeeb}, !- Inlet Port
  ;                                       !- Outlet Port

OS:Connection,
  {f7d28e5b-021e-4537-9f7a-fcc6d6d7aeeb}, !- Handle
  {038e2057-5451-49cd-aed8-459dfd86b77c}, !- Name
  {1b5803a0-295f-4828-bd01-9dc3e85c0ba9}, !- Source Object
  11,                                     !- Outlet Port
  {2e75061f-857a-4a61-ac7b-320b156f40ba}, !- Target Object
  2;                                      !- Inlet Port

OS:PortList,
  {8ddf0f03-5c11-4b82-971a-cdc71dde22af}, !- Handle
  {8386c5ac-ba8a-496c-8569-8e6801857419}, !- Name
  {1b5803a0-295f-4828-bd01-9dc3e85c0ba9}; !- HVAC Component

OS:PortList,
  {4bbc0e25-ef60-4e28-aa42-c30f5cb7ba53}, !- Handle
  {9c1a6590-4069-4250-bae5-ab9c6068ab52}, !- Name
  {1b5803a0-295f-4828-bd01-9dc3e85c0ba9}; !- HVAC Component

OS:Sizing:Zone,
  {2ab6169a-0dd6-4b91-bd3d-c68e01430a1f}, !- Handle
  {1b5803a0-295f-4828-bd01-9dc3e85c0ba9}, !- Zone or ZoneList Name
  SupplyAirTemperature,                   !- Zone Cooling Design Supply Air Temperature Input Method
  14,                                     !- Zone Cooling Design Supply Air Temperature {C}
  11.11,                                  !- Zone Cooling Design Supply Air Temperature Difference {deltaC}
  SupplyAirTemperature,                   !- Zone Heating Design Supply Air Temperature Input Method
  40,                                     !- Zone Heating Design Supply Air Temperature {C}
  11.11,                                  !- Zone Heating Design Supply Air Temperature Difference {deltaC}
  0.0085,                                 !- Zone Cooling Design Supply Air Humidity Ratio {kg-H2O/kg-air}
  0.008,                                  !- Zone Heating Design Supply Air Humidity Ratio {kg-H2O/kg-air}
  ,                                       !- Zone Heating Sizing Factor
  ,                                       !- Zone Cooling Sizing Factor
  DesignDay,                              !- Cooling Design Air Flow Method
  ,                                       !- Cooling Design Air Flow Rate {m3/s}
  ,                                       !- Cooling Minimum Air Flow per Zone Floor Area {m3/s-m2}
  ,                                       !- Cooling Minimum Air Flow {m3/s}
  ,                                       !- Cooling Minimum Air Flow Fraction
  DesignDay,                              !- Heating Design Air Flow Method
  ,                                       !- Heating Design Air Flow Rate {m3/s}
  ,                                       !- Heating Maximum Air Flow per Zone Floor Area {m3/s-m2}
  ,                                       !- Heating Maximum Air Flow {m3/s}
  ,                                       !- Heating Maximum Air Flow Fraction
  ,                                       !- Design Zone Air Distribution Effectiveness in Cooling Mode
  ,                                       !- Design Zone Air Distribution Effectiveness in Heating Mode
  No,                                     !- Account for Dedicated Outdoor Air System
  NeutralSupplyAir,                       !- Dedicated Outdoor Air System Control Strategy
  autosize,                               !- Dedicated Outdoor Air Low Setpoint Temperature for Design {C}
  autosize;                               !- Dedicated Outdoor Air High Setpoint Temperature for Design {C}

OS:ZoneHVAC:EquipmentList,
  {8a6ce7a9-41a0-4db1-8394-420c8c8923c5}, !- Handle
  {dba35623-1735-4b11-b16f-501d3c15e2e4}, !- Name
  {1b5803a0-295f-4828-bd01-9dc3e85c0ba9}; !- Thermal Zone

OS:Space,
  {deb6d56c-b78c-41d9-9d7b-495ef646bd74}, !- Handle
  4 Closet,                               !- Name
  ,                                       !- Space Type Name
  ,                                       !- Default Construction Set Name
  ,                                       !- Default Schedule Set Name
  ,                                       !- Direction of Relative North {deg}
  ,                                       !- X Origin {m}
  ,                                       !- Y Origin {m}
  ,                                       !- Z Origin {m}
  {a37c5a4a-f232-4112-9586-2d035d1302c9}, !- Building Story Name
  {02f40bca-41ef-4f93-822b-cbde4a78a22b}; !- Thermal Zone Name

OS:ThermalZone,
  {02f40bca-41ef-4f93-822b-cbde4a78a22b}, !- Handle
  4 Closet ThermalZone,                   !- Name
  ,                                       !- Multiplier
  ,                                       !- Ceiling Height {m}
  ,                                       !- Volume {m3}
  ,                                       !- Floor Area {m2}
  ,                                       !- Zone Inside Convection Algorithm
  ,                                       !- Zone Outside Convection Algorithm
  ,                                       !- Zone Conditioning Equipment List Name
  {fc564d7e-0b59-4061-9dfd-c83373deee82}, !- Zone Air Inlet Port List
  {9b77ac0f-e95c-4766-b121-e3225f712e7a}, !- Zone Air Exhaust Port List
  {18a6ffad-19c5-4ced-a05b-1be68d290506}, !- Zone Air Node Name
  ,                                       !- Zone Return Air Node Name
  ,                                       !- Primary Daylighting Control Name
  ,                                       !- Fraction of Zone Controlled by Primary Daylighting Control
  ,                                       !- Secondary Daylighting Control Name
  ,                                       !- Fraction of Zone Controlled by Secondary Daylighting Control
  ,                                       !- Illuminance Map Name
  {cc310763-3e76-4ba7-80b8-9f6a6f06fdd1}, !- Group Rendering Name
  ,                                       !- Thermostat Name
  No;                                     !- Use Ideal Air Loads

OS:Node,
  {2bcdff9e-812f-4157-879d-58e9a6373953}, !- Handle
  {9b54e62f-038f-4c8f-877f-379c51add830}, !- Name
  {18a6ffad-19c5-4ced-a05b-1be68d290506}, !- Inlet Port
  ;                                       !- Outlet Port

OS:Connection,
  {18a6ffad-19c5-4ced-a05b-1be68d290506}, !- Handle
  {daaa11cd-5370-43f9-98f4-b95e1b3f72e0}, !- Name
  {02f40bca-41ef-4f93-822b-cbde4a78a22b}, !- Source Object
  11,                                     !- Outlet Port
  {2bcdff9e-812f-4157-879d-58e9a6373953}, !- Target Object
  2;                                      !- Inlet Port

OS:PortList,
  {fc564d7e-0b59-4061-9dfd-c83373deee82}, !- Handle
  {e326d96c-7ccb-4f3c-9aa5-faa4423a043d}, !- Name
  {02f40bca-41ef-4f93-822b-cbde4a78a22b}; !- HVAC Component

OS:PortList,
  {9b77ac0f-e95c-4766-b121-e3225f712e7a}, !- Handle
  {c064ea7f-c236-4cf5-9a35-bc1500132f15}, !- Name
  {02f40bca-41ef-4f93-822b-cbde4a78a22b}; !- HVAC Component

OS:Sizing:Zone,
  {66085381-f75e-4f0c-b0d5-ceb2548df4c5}, !- Handle
  {02f40bca-41ef-4f93-822b-cbde4a78a22b}, !- Zone or ZoneList Name
  SupplyAirTemperature,                   !- Zone Cooling Design Supply Air Temperature Input Method
  14,                                     !- Zone Cooling Design Supply Air Temperature {C}
  11.11,                                  !- Zone Cooling Design Supply Air Temperature Difference {deltaC}
  SupplyAirTemperature,                   !- Zone Heating Design Supply Air Temperature Input Method
  40,                                     !- Zone Heating Design Supply Air Temperature {C}
  11.11,                                  !- Zone Heating Design Supply Air Temperature Difference {deltaC}
  0.0085,                                 !- Zone Cooling Design Supply Air Humidity Ratio {kg-H2O/kg-air}
  0.008,                                  !- Zone Heating Design Supply Air Humidity Ratio {kg-H2O/kg-air}
  ,                                       !- Zone Heating Sizing Factor
  ,                                       !- Zone Cooling Sizing Factor
  DesignDay,                              !- Cooling Design Air Flow Method
  ,                                       !- Cooling Design Air Flow Rate {m3/s}
  ,                                       !- Cooling Minimum Air Flow per Zone Floor Area {m3/s-m2}
  ,                                       !- Cooling Minimum Air Flow {m3/s}
  ,                                       !- Cooling Minimum Air Flow Fraction
  DesignDay,                              !- Heating Design Air Flow Method
  ,                                       !- Heating Design Air Flow Rate {m3/s}
  ,                                       !- Heating Maximum Air Flow per Zone Floor Area {m3/s-m2}
  ,                                       !- Heating Maximum Air Flow {m3/s}
  ,                                       !- Heating Maximum Air Flow Fraction
  ,                                       !- Design Zone Air Distribution Effectiveness in Cooling Mode
  ,                                       !- Design Zone Air Distribution Effectiveness in Heating Mode
  No,                                     !- Account for Dedicated Outdoor Air System
  NeutralSupplyAir,                       !- Dedicated Outdoor Air System Control Strategy
  autosize,                               !- Dedicated Outdoor Air Low Setpoint Temperature for Design {C}
  autosize;                               !- Dedicated Outdoor Air High Setpoint Temperature for Design {C}

OS:ZoneHVAC:EquipmentList,
  {e65cce00-63b7-40a3-8bc8-bc626286e23d}, !- Handle
  {922de592-f89f-4a04-82b7-950d42cf0451}, !- Name
  {02f40bca-41ef-4f93-822b-cbde4a78a22b}; !- Thermal Zone

OS:Space,
  {21433f90-d6ac-4edd-93c5-3dc63003088c}, !- Handle
  5 Laun,                                 !- Name
  ,                                       !- Space Type Name
  ,                                       !- Default Construction Set Name
  ,                                       !- Default Schedule Set Name
  ,                                       !- Direction of Relative North {deg}
  ,                                       !- X Origin {m}
  ,                                       !- Y Origin {m}
  ,                                       !- Z Origin {m}
  {a37c5a4a-f232-4112-9586-2d035d1302c9}, !- Building Story Name
  {c072f55d-88ab-4426-9c83-5dfb967ba788}, !- Thermal Zone Name
  ,                                       !- Part of Total Floor Area
  ,                                       !- Design Specification Outdoor Air Object Name
  ;                                       !- Building Unit Name

OS:ThermalZone,
  {c072f55d-88ab-4426-9c83-5dfb967ba788}, !- Handle
  5 Laun ThermalZone,                     !- Name
  ,                                       !- Multiplier
  ,                                       !- Ceiling Height {m}
  ,                                       !- Volume {m3}
  ,                                       !- Floor Area {m2}
  ,                                       !- Zone Inside Convection Algorithm
  ,                                       !- Zone Outside Convection Algorithm
  ,                                       !- Zone Conditioning Equipment List Name
  {4949fbc6-8f53-4c6a-9c8c-d8b17addb38f}, !- Zone Air Inlet Port List
  {df2c62f2-1cc0-427a-9ea9-d077788b4415}, !- Zone Air Exhaust Port List
  {8cd3d586-b33f-42b5-a9ef-42904d071ff8}, !- Zone Air Node Name
  ,                                       !- Zone Return Air Node Name
  ,                                       !- Primary Daylighting Control Name
  ,                                       !- Fraction of Zone Controlled by Primary Daylighting Control
  ,                                       !- Secondary Daylighting Control Name
  ,                                       !- Fraction of Zone Controlled by Secondary Daylighting Control
  ,                                       !- Illuminance Map Name
  {aa2afe0d-3645-42e1-a575-21b36ca788f2}, !- Group Rendering Name
  ,                                       !- Thermostat Name
  No;                                     !- Use Ideal Air Loads

OS:Node,
  {823d532d-77af-4cac-8903-373a79462b23}, !- Handle
  {1589aa48-f26d-4467-af23-cea988fa7589}, !- Name
  {8cd3d586-b33f-42b5-a9ef-42904d071ff8}, !- Inlet Port
  ;                                       !- Outlet Port

OS:Connection,
  {8cd3d586-b33f-42b5-a9ef-42904d071ff8}, !- Handle
  {fc40f571-28eb-4ea0-ad4c-e9e092e63d76}, !- Name
  {c072f55d-88ab-4426-9c83-5dfb967ba788}, !- Source Object
  11,                                     !- Outlet Port
  {823d532d-77af-4cac-8903-373a79462b23}, !- Target Object
  2;                                      !- Inlet Port

OS:PortList,
  {4949fbc6-8f53-4c6a-9c8c-d8b17addb38f}, !- Handle
  {68dbe559-bfa3-4c21-92a1-083e0124da78}, !- Name
  {c072f55d-88ab-4426-9c83-5dfb967ba788}; !- HVAC Component

OS:PortList,
  {df2c62f2-1cc0-427a-9ea9-d077788b4415}, !- Handle
  {2a1c7a86-cb51-44a0-8d7f-461b35f532d4}, !- Name
  {c072f55d-88ab-4426-9c83-5dfb967ba788}; !- HVAC Component

OS:Sizing:Zone,
  {966bc630-e485-4113-9f77-98839ab36198}, !- Handle
  {c072f55d-88ab-4426-9c83-5dfb967ba788}, !- Zone or ZoneList Name
  SupplyAirTemperature,                   !- Zone Cooling Design Supply Air Temperature Input Method
  14,                                     !- Zone Cooling Design Supply Air Temperature {C}
  11.11,                                  !- Zone Cooling Design Supply Air Temperature Difference {deltaC}
  SupplyAirTemperature,                   !- Zone Heating Design Supply Air Temperature Input Method
  40,                                     !- Zone Heating Design Supply Air Temperature {C}
  11.11,                                  !- Zone Heating Design Supply Air Temperature Difference {deltaC}
  0.0085,                                 !- Zone Cooling Design Supply Air Humidity Ratio {kg-H2O/kg-air}
  0.008,                                  !- Zone Heating Design Supply Air Humidity Ratio {kg-H2O/kg-air}
  ,                                       !- Zone Heating Sizing Factor
  ,                                       !- Zone Cooling Sizing Factor
  DesignDay,                              !- Cooling Design Air Flow Method
  ,                                       !- Cooling Design Air Flow Rate {m3/s}
  ,                                       !- Cooling Minimum Air Flow per Zone Floor Area {m3/s-m2}