
OS:Version,
  {b64c18d1-0d06-44be-b0a3-c76c6df8e277}, !- Handle
  2.6.0;                                  !- Version Identifier

OS:ThermalZone,
  {2a758807-8ca8-4bb7-9557-f93cbc35b295}, !- Handle
  Zone 1,                                 !- Name
  ,                                       !- Multiplier
  ,                                       !- Ceiling Height {m}
  ,                                       !- Volume {m3}
  ,                                       !- Floor Area {m2}
  ,                                       !- Zone Inside Convection Algorithm
  ,                                       !- Zone Outside Convection Algorithm
  ,                                       !- Zone Conditioning Equipment List Name
  {57690526-5656-4da9-a458-5773430e984d}, !- Zone Air Inlet Port List
  {a2564624-e94a-492b-9324-d6375df1ba57}, !- Zone Air Exhaust Port List
  {d89eb204-6cd2-41fe-a0b1-111fdf7b8d71}, !- Zone Air Node Name
  ,                                       !- Zone Return Air Node Name
  ,                                       !- Primary Daylighting Control Name
  ,                                       !- Fraction of Zone Controlled by Primary Daylighting Control
  ,                                       !- Secondary Daylighting Control Name
  ,                                       !- Fraction of Zone Controlled by Secondary Daylighting Control
  ,                                       !- Illuminance Map Name
  {1292a87a-d5be-4d0d-a6d4-599ca42b807e}, !- Group Rendering Name
  ,                                       !- Thermostat Name
  No;                                     !- Use Ideal Air Loads

OS:Node,
  {45b078d1-7ee5-45cb-a47e-b912400ae4fa}, !- Handle
  {933a3a7a-ec56-444a-8a75-40ada95deb8e}, !- Name
  {d89eb204-6cd2-41fe-a0b1-111fdf7b8d71}, !- Inlet Port
  ;                                       !- Outlet Port

OS:Connection,
  {d89eb204-6cd2-41fe-a0b1-111fdf7b8d71}, !- Handle
  {03fa4207-f84c-490a-91e0-38611b1bc8cd}, !- Name
  {2a758807-8ca8-4bb7-9557-f93cbc35b295}, !- Source Object
  11,                                     !- Outlet Port
  {45b078d1-7ee5-45cb-a47e-b912400ae4fa}, !- Target Object
  2;                                      !- Inlet Port

OS:PortList,
  {57690526-5656-4da9-a458-5773430e984d}, !- Handle
  {6bce3550-22ad-420a-946e-f4af453a9455}, !- Name
  {2a758807-8ca8-4bb7-9557-f93cbc35b295}; !- HVAC Component

OS:PortList,
  {a2564624-e94a-492b-9324-d6375df1ba57}, !- Handle
  {eeb8218d-5aa1-435d-a2e9-8554e5f64c6e}, !- Name
  {2a758807-8ca8-4bb7-9557-f93cbc35b295}; !- HVAC Component

OS:Sizing:Zone,
  {888d1937-96c6-491d-9626-9eb238d76f1d}, !- Handle
  {2a758807-8ca8-4bb7-9557-f93cbc35b295}, !- Zone or ZoneList Name
  SupplyAirTemperature,                   !- Zone Cooling Design Supply Air Temperature Input Method
  14,                                     !- Zone Cooling Design Supply Air Temperature {C}
  11.11,                                  !- Zone Cooling Design Supply Air Temperature Difference {deltaC}
  SupplyAirTemperature,                   !- Zone Heating Design Supply Air Temperature Input Method
  40,                                     !- Zone Heating Design Supply Air Temperature {C}
  11.11,                                  !- Zone Heating Design Supply Air Temperature Difference {deltaC}
  0.0085,                                 !- Zone Cooling Design Supply Air Humidity Ratio {kg-H2O/kg-air}
  0.008,                                  !- Zone Heating Design Supply Air Humidity Ratio {kg-H2O/kg-air}
  ,                                       !- Zone Heating Sizing Factor
  ,                                       !- Zone Cooling Sizing Factor
  DesignDay,                              !- Cooling Design Air Flow Method
  ,                                       !- Cooling Design Air Flow Rate {m3/s}
  ,                                       !- Cooling Minimum Air Flow per Zone Floor Area {m3/s-m2}
  ,                                       !- Cooling Minimum Air Flow {m3/s}
  ,                                       !- Cooling Minimum Air Flow Fraction
  DesignDay,                              !- Heating Design Air Flow Method
  ,                                       !- Heating Design Air Flow Rate {m3/s}
  ,                                       !- Heating Maximum Air Flow per Zone Floor Area {m3/s-m2}
  ,                                       !- Heating Maximum Air Flow {m3/s}
  ,                                       !- Heating Maximum Air Flow Fraction
  ,                                       !- Design Zone Air Distribution Effectiveness in Cooling Mode
  ,                                       !- Design Zone Air Distribution Effectiveness in Heating Mode
  No,                                     !- Account for Dedicated Outdoor Air System
  NeutralSupplyAir,                       !- Dedicated Outdoor Air System Control Strategy
  autosize,                               !- Dedicated Outdoor Air Low Setpoint Temperature for Design {C}
  autosize;                               !- Dedicated Outdoor Air High Setpoint Temperature for Design {C}

OS:ZoneHVAC:EquipmentList,
  {dc1da2b8-d61a-42e4-8d66-663b0f0ac2ea}, !- Handle
  {410606c2-7815-4ea3-9d91-2a59342b8886}, !- Name
  {2a758807-8ca8-4bb7-9557-f93cbc35b295}; !- Thermal Zone

OS:ThermalZone,
  {7f2afbd4-5248-4f38-a812-727ceeebd1e6}, !- Handle
  Zone 2,                                 !- Name
  ,                                       !- Multiplier
  ,                                       !- Ceiling Height {m}
  ,                                       !- Volume {m3}
  ,                                       !- Floor Area {m2}
  ,                                       !- Zone Inside Convection Algorithm
  ,                                       !- Zone Outside Convection Algorithm
  ,                                       !- Zone Conditioning Equipment List Name
  {65cf5cac-397f-49c0-8341-ab47083e650e}, !- Zone Air Inlet Port List
  {1180d7b1-639b-429a-a836-57758f6b185f}, !- Zone Air Exhaust Port List
  {d60ec34c-4d0a-4acb-9424-ab8d07bc9094}, !- Zone Air Node Name
  ,                                       !- Zone Return Air Node Name
  ,                                       !- Primary Daylighting Control Name
  ,                                       !- Fraction of Zone Controlled by Primary Daylighting Control
  ,                                       !- Secondary Daylighting Control Name
  ,                                       !- Fraction of Zone Controlled by Secondary Daylighting Control
  ,                                       !- Illuminance Map Name
  {9519e0b0-e61e-4861-be39-2997edb4d72e}, !- Group Rendering Name
  ,                                       !- Thermostat Name
  No;                                     !- Use Ideal Air Loads

OS:Node,
  {982889a6-2d04-41a8-bcb9-d893ab6625ab}, !- Handle
  {da2997fc-55a0-4b79-a7ed-2da97417fe55}, !- Name
  {d60ec34c-4d0a-4acb-9424-ab8d07bc9094}, !- Inlet Port
  ;                                       !- Outlet Port

OS:Connection,
  {d60ec34c-4d0a-4acb-9424-ab8d07bc9094}, !- Handle
  {04e29146-9d5d-4a18-8d65-be78c6997ca1}, !- Name
  {7f2afbd4-5248-4f38-a812-727ceeebd1e6}, !- Source Object
  11,                                     !- Outlet Port
  {982889a6-2d04-41a8-bcb9-d893ab6625ab}, !- Target Object
  2;                                      !- Inlet Port

OS:PortList,
  {65cf5cac-397f-49c0-8341-ab47083e650e}, !- Handle
  {7900398a-0506-4258-bed0-dd90dbc297f9}, !- Name
  {7f2afbd4-5248-4f38-a812-727ceeebd1e6}; !- HVAC Component

OS:PortList,
  {1180d7b1-639b-429a-a836-57758f6b185f}, !- Handle
  {2ca21cb8-72d2-4e37-b98f-fc4241897d13}, !- Name
  {7f2afbd4-5248-4f38-a812-727ceeebd1e6}; !- HVAC Component

OS:Sizing:Zone,
  {92e3ba0f-b37c-42ab-8392-a4ec4336de41}, !- Handle
  {7f2afbd4-5248-4f38-a812-727ceeebd1e6}, !- Zone or ZoneList Name
  SupplyAirTemperature,                   !- Zone Cooling Design Supply Air Temperature Input Method
  14,                                     !- Zone Cooling Design Supply Air Temperature {C}
  11.11,                                  !- Zone Cooling Design Supply Air Temperature Difference {deltaC}
  SupplyAirTemperature,                   !- Zone Heating Design Supply Air Temperature Input Method
  40,                                     !- Zone Heating Design Supply Air Temperature {C}
  11.11,                                  !- Zone Heating Design Supply Air Temperature Difference {deltaC}
  0.0085,                                 !- Zone Cooling Design Supply Air Humidity Ratio {kg-H2O/kg-air}
  0.008,                                  !- Zone Heating Design Supply Air Humidity Ratio {kg-H2O/kg-air}
  ,                                       !- Zone Heating Sizing Factor
  ,                                       !- Zone Cooling Sizing Factor
  DesignDay,                              !- Cooling Design Air Flow Method
  ,                                       !- Cooling Design Air Flow Rate {m3/s}
  ,                                       !- Cooling Minimum Air Flow per Zone Floor Area {m3/s-m2}
  ,                                       !- Cooling Minimum Air Flow {m3/s}
  ,                                       !- Cooling Minimum Air Flow Fraction
  DesignDay,                              !- Heating Design Air Flow Method
  ,                                       !- Heating Design Air Flow Rate {m3/s}
  ,                                       !- Heating Maximum Air Flow per Zone Floor Area {m3/s-m2}
  ,                                       !- Heating Maximum Air Flow {m3/s}
  ,                                       !- Heating Maximum Air Flow Fraction
  ,                                       !- Design Zone Air Distribution Effectiveness in Cooling Mode
  ,                                       !- Design Zone Air Distribution Effectiveness in Heating Mode
  No,                                     !- Account for Dedicated Outdoor Air System
  NeutralSupplyAir,                       !- Dedicated Outdoor Air System Control Strategy
  autosize,                               !- Dedicated Outdoor Air Low Setpoint Temperature for Design {C}
  autosize;                               !- Dedicated Outdoor Air High Setpoint Temperature for Design {C}

OS:ZoneHVAC:EquipmentList,
  {e9d0641d-0d38-4320-84fb-60d78da732f6}, !- Handle
  {f2708a20-9404-4154-b3fb-25c1bee7ec9e}, !- Name
  {7f2afbd4-5248-4f38-a812-727ceeebd1e6}; !- Thermal Zone

OS:ThermalZone,
  {9f100269-b8d5-4f87-8bd9-3db3b062bcef}, !- Handle
  Zone 3,                                 !- Name
  ,                                       !- Multiplier
  ,                                       !- Ceiling Height {m}
  ,                                       !- Volume {m3}
  ,                                       !- Floor Area {m2}
  ,                                       !- Zone Inside Convection Algorithm
  ,                                       !- Zone Outside Convection Algorithm
  ,                                       !- Zone Conditioning Equipment List Name
  {b7610dff-0cec-4481-9c06-fe4165ef52ad}, !- Zone Air Inlet Port List
  {4f7f47ce-b27f-41e9-b1e1-8ac2863e6aa6}, !- Zone Air Exhaust Port List
  {cca26b8d-abc0-4913-b329-d54d7c308c38}, !- Zone Air Node Name
  ,                                       !- Zone Return Air Node Name
  ,                                       !- Primary Daylighting Control Name
  ,                                       !- Fraction of Zone Controlled by Primary Daylighting Control
  ,                                       !- Secondary Daylighting Control Name
  ,                                       !- Fraction of Zone Controlled by Secondary Daylighting Control
  ,                                       !- Illuminance Map Name
  {b5ff039e-6356-4a5c-944b-ce8359eded7d}, !- Group Rendering Name
  ,                                       !- Thermostat Name
  No;                                     !- Use Ideal Air Loads

OS:Node,
  {aa20090a-369a-4a05-b066-4214e5173db3}, !- Handle
  {5eb5675f-b64d-4336-b544-2518f97594f3}, !- Name
  {cca26b8d-abc0-4913-b329-d54d7c308c38}, !- Inlet Port
  ;                                       !- Outlet Port

OS:Connection,
  {cca26b8d-abc0-4913-b329-d54d7c308c38}, !- Handle
  {65a2f6c0-3c0c-4ef0-879c-25cdfe371507}, !- Name
  {9f100269-b8d5-4f87-8bd9-3db3b062bcef}, !- Source Object
  11,                                     !- Outlet Port
  {aa20090a-369a-4a05-b066-4214e5173db3}, !- Target Object
  2;                                      !- Inlet Port

OS:PortList,
  {b7610dff-0cec-4481-9c06-fe4165ef52ad}, !- Handle
  {31b290d9-2db3-41c0-bc69-60fb0f96140c}, !- Name
  {9f100269-b8d5-4f87-8bd9-3db3b062bcef}; !- HVAC Component

OS:PortList,
  {4f7f47ce-b27f-41e9-b1e1-8ac2863e6aa6}, !- Handle
  {d0df15eb-5c46-42ac-99a7-73e038453657}, !- Name
  {9f100269-b8d5-4f87-8bd9-3db3b062bcef}; !- HVAC Component

OS:Sizing:Zone,
  {b4d9443e-ea13-4391-a396-848fbdc01896}, !- Handle
  {9f100269-b8d5-4f87-8bd9-3db3b062bcef}, !- Zone or ZoneList Name
  SupplyAirTemperature,                   !- Zone Cooling Design Supply Air Temperature Input Method
  14,                                     !- Zone Cooling Design Supply Air Temperature {C}
  11.11,                                  !- Zone Cooling Design Supply Air Temperature Difference {deltaC}
  SupplyAirTemperature,                   !- Zone Heating Design Supply Air Temperature Input Method
  40,                                     !- Zone Heating Design Supply Air Temperature {C}
  11.11,                                  !- Zone Heating Design Supply Air Temperature Difference {deltaC}
  0.0085,                                 !- Zone Cooling Design Supply Air Humidity Ratio {kg-H2O/kg-air}
  0.008,                                  !- Zone Heating Design Supply Air Humidity Ratio {kg-H2O/kg-air}
  ,                                       !- Zone Heating Sizing Factor
  ,                                       !- Zone Cooling Sizing Factor
  DesignDay,                              !- Cooling Design Air Flow Method
  ,                                       !- Cooling Design Air Flow Rate {m3/s}
  ,                                       !- Cooling Minimum Air Flow per Zone Floor Area {m3/s-m2}
  ,                                       !- Cooling Minimum Air Flow {m3/s}
  ,                                       !- Cooling Minimum Air Flow Fraction
  DesignDay,                              !- Heating Design Air Flow Method
  ,                                       !- Heating Design Air Flow Rate {m3/s}
  ,                                       !- Heating Maximum Air Flow per Zone Floor Area {m3/s-m2}
  ,                                       !- Heating Maximum Air Flow {m3/s}
  ,                                       !- Heating Maximum Air Flow Fraction
  ,                                       !- Design Zone Air Distribution Effectiveness in Cooling Mode
  ,                                       !- Design Zone Air Distribution Effectiveness in Heating Mode
  No,                                     !- Account for Dedicated Outdoor Air System
  NeutralSupplyAir,                       !- Dedicated Outdoor Air System Control Strategy
  autosize,                               !- Dedicated Outdoor Air Low Setpoint Temperature for Design {C}
  autosize;                               !- Dedicated Outdoor Air High Setpoint Temperature for Design {C}

OS:ZoneHVAC:EquipmentList,
  {55698eaf-a98c-4710-b116-42a4404c943a}, !- Handle
  {872e07d3-7ee4-4b4e-8c52-54f5f90d8e15}, !- Name
  {9f100269-b8d5-4f87-8bd9-3db3b062bcef}; !- Thermal Zone

OS:ThermalZone,
  {57979e68-b977-4536-b58c-7fc0ce750633}, !- Handle
  Zone 4,                                 !- Name
  ,                                       !- Multiplier
  ,                                       !- Ceiling Height {m}
  ,                                       !- Volume {m3}
  ,                                       !- Floor Area {m2}
  ,                                       !- Zone Inside Convection Algorithm
  ,                                       !- Zone Outside Convection Algorithm
  ,                                       !- Zone Conditioning Equipment List Name
  {f48c36ba-62ba-43af-9087-636c9861b6ec}, !- Zone Air Inlet Port List
  {914552e7-5b8d-4650-936f-bb1fa11ee06e}, !- Zone Air Exhaust Port List
  {aa680f1e-d086-4366-ba70-97c126444d87}, !- Zone Air Node Name
  ,                                       !- Zone Return Air Node Name
  ,                                       !- Primary Daylighting Control Name
  ,                                       !- Fraction of Zone Controlled by Primary Daylighting Control
  ,                                       !- Secondary Daylighting Control Name
  ,                                       !- Fraction of Zone Controlled by Secondary Daylighting Control
  ,                                       !- Illuminance Map Name
  {ec70f9aa-d8ce-4127-9610-7c5402890af2}, !- Group Rendering Name
  ,                                       !- Thermostat Name
  No;                                     !- Use Ideal Air Loads

OS:Node,
  {bd268653-9991-4bb2-ae8f-31e366c11ac6}, !- Handle
  {be414893-7417-459a-9d90-ffbaa82e5a11}, !- Name
  {aa680f1e-d086-4366-ba70-97c126444d87}, !- Inlet Port
  ;                                       !- Outlet Port

OS:Connection,
  {aa680f1e-d086-4366-ba70-97c126444d87}, !- Handle
  {9018fcdb-6d3f-44fb-8998-8560c37f95fc}, !- Name
  {57979e68-b977-4536-b58c-7fc0ce750633}, !- Source Object
  11,                                     !- Outlet Port
  {bd268653-9991-4bb2-ae8f-31e366c11ac6}, !- Target Object
  2;                                      !- Inlet Port

OS:PortList,
  {f48c36ba-62ba-43af-9087-636c9861b6ec}, !- Handle
  {f022630d-397e-4e51-a30b-ad40adf567e3}, !- Name
  {57979e68-b977-4536-b58c-7fc0ce750633}; !- HVAC Component

OS:PortList,
  {914552e7-5b8d-4650-936f-bb1fa11ee06e}, !- Handle
  {3ca6b9c7-c3a2-40d8-bd6f-c2bf6488d40f}, !- Name
  {57979e68-b977-4536-b58c-7fc0ce750633}; !- HVAC Component

OS:Sizing:Zone,
  {3fa84a0d-20a5-4b4c-8e4e-19ec00c3bd0c}, !- Handle
  {57979e68-b977-4536-b58c-7fc0ce750633}, !- Zone or ZoneList Name
  SupplyAirTemperature,                   !- Zone Cooling Design Supply Air Temperature Input Method
  14,                                     !- Zone Cooling Design Supply Air Temperature {C}
  11.11,                                  !- Zone Cooling Design Supply Air Temperature Difference {deltaC}
  SupplyAirTemperature,                   !- Zone Heating Design Supply Air Temperature Input Method
  40,                                     !- Zone Heating Design Supply Air Temperature {C}
  11.11,                                  !- Zone Heating Design Supply Air Temperature Difference {deltaC}
  0.0085,                                 !- Zone Cooling Design Supply Air Humidity Ratio {kg-H2O/kg-air}
  0.008,                                  !- Zone Heating Design Supply Air Humidity Ratio {kg-H2O/kg-air}
  ,                                       !- Zone Heating Sizing Factor
  ,                                       !- Zone Cooling Sizing Factor
  DesignDay,                              !- Cooling Design Air Flow Method
  ,                                       !- Cooling Design Air Flow Rate {m3/s}
  ,                                       !- Cooling Minimum Air Flow per Zone Floor Area {m3/s-m2}
  ,                                       !- Cooling Minimum Air Flow {m3/s}
  ,                                       !- Cooling Minimum Air Flow Fraction
  DesignDay,                              !- Heating Design Air Flow Method
  ,                                       !- Heating Design Air Flow Rate {m3/s}
  ,                                       !- Heating Maximum Air Flow per Zone Floor Area {m3/s-m2}
  ,                                       !- Heating Maximum Air Flow {m3/s}
  ,                                       !- Heating Maximum Air Flow Fraction
  ,                                       !- Design Zone Air Distribution Effectiveness in Cooling Mode
  ,                                       !- Design Zone Air Distribution Effectiveness in Heating Mode
  No,                                     !- Account for Dedicated Outdoor Air System
  NeutralSupplyAir,                       !- Dedicated Outdoor Air System Control Strategy
  autosize,                               !- Dedicated Outdoor Air Low Setpoint Temperature for Design {C}
  autosize;                               !- Dedicated Outdoor Air High Setpoint Temperature for Design {C}

OS:ZoneHVAC:EquipmentList,
  {c8cc6ab2-808e-4fae-bb13-6fd69496d229}, !- Handle
  {dcbe0d71-b4de-495a-b53f-6bd4c3d336e0}, !- Name
  {57979e68-b977-4536-b58c-7fc0ce750633}; !- Thermal Zone

OS:ThermalZone,
  {7e9601de-2f6b-4ff2-a93a-79e46cd3246a}, !- Handle
  Zone 5,                                 !- Name
  ,                                       !- Multiplier
  ,                                       !- Ceiling Height {m}
  ,                                       !- Volume {m3}
  ,                                       !- Floor Area {m2}
  ,                                       !- Zone Inside Convection Algorithm
  ,                                       !- Zone Outside Convection Algorithm
  ,                                       !- Zone Conditioning Equipment List Name
  {aa8f4348-c73b-4cc9-bc90-2da48139b0bf}, !- Zone Air Inlet Port List
  {c5a81f9f-fee8-481b-a339-6e6fc9b58495}, !- Zone Air Exhaust Port List
  {ed332e9f-7de8-4478-b533-e65e14e7fac3}, !- Zone Air Node Name
  ,                                       !- Zone Return Air Node Name
  ,                                       !- Primary Daylighting Control Name
  ,                                       !- Fraction of Zone Controlled by Primary Daylighting Control
  ,                                       !- Secondary Daylighting Control Name
  ,                                       !- Fraction of Zone Controlled by Secondary Daylighting Control
  ,                                       !- Illuminance Map Name
  {7660c6e9-d64c-4450-904c-a1a04c7de0df}, !- Group Rendering Name
  ,                                       !- Thermostat Name
  No;                                     !- Use Ideal Air Loads

OS:Node,
  {a41333f1-4275-4f3e-ab6d-56c8752c73ad}, !- Handle
  {8acc973c-a08b-4796-91f6-a684ad37b7f5}, !- Name
  {ed332e9f-7de8-4478-b533-e65e14e7fac3}, !- Inlet Port
  ;                                       !- Outlet Port

OS:Connection,
  {ed332e9f-7de8-4478-b533-e65e14e7fac3}, !- Handle
  {6b05c4ed-aa80-424f-89ea-3741d426af41}, !- Name
  {7e9601de-2f6b-4ff2-a93a-79e46cd3246a}, !- Source Object
  11,                                     !- Outlet Port
  {a41333f1-4275-4f3e-ab6d-56c8752c73ad}, !- Target Object
  2;                                      !- Inlet Port

OS:PortList,
  {aa8f4348-c73b-4cc9-bc90-2da48139b0bf}, !- Handle
  {8c36ca25-876f-4c18-9f22-a052a809bbe0}, !- Name
  {7e9601de-2f6b-4ff2-a93a-79e46cd3246a}; !- HVAC Component

OS:PortList,
  {c5a81f9f-fee8-481b-a339-6e6fc9b58495}, !- Handle
  {50079079-b864-4ee2-af7d-80fed7961c05}, !- Name
  {7e9601de-2f6b-4ff2-a93a-79e46cd3246a}; !- HVAC Component

OS:Sizing:Zone,
  {8a0f1f8a-f13a-4114-9a8b-bd283c050b55}, !- Handle
  {7e9601de-2f6b-4ff2-a93a-79e46cd3246a}, !- Zone or ZoneList Name
  SupplyAirTemperature,                   !- Zone Cooling Design Supply Air Temperature Input Method
  14,                                     !- Zone Cooling Design Supply Air Temperature {C}
  11.11,                                  !- Zone Cooling Design Supply Air Temperature Difference {deltaC}
  SupplyAirTemperature,                   !- Zone Heating Design Supply Air Temperature Input Method
  40,                                     !- Zone Heating Design Supply Air Temperature {C}
  11.11,                                  !- Zone Heating Design Supply Air Temperature Difference {deltaC}
  0.0085,                                 !- Zone Cooling Design Supply Air Humidity Ratio {kg-H2O/kg-air}
  0.008,                                  !- Zone Heating Design Supply Air Humidity Ratio {kg-H2O/kg-air}
  ,                                       !- Zone Heating Sizing Factor
  ,                                       !- Zone Cooling Sizing Factor
  DesignDay,                              !- Cooling Design Air Flow Method
  ,                                       !- Cooling Design Air Flow Rate {m3/s}
  ,                                       !- Cooling Minimum Air Flow per Zone Floor Area {m3/s-m2}
  ,                                       !- Cooling Minimum Air Flow {m3/s}
  ,                                       !- Cooling Minimum Air Flow Fraction
  DesignDay,                              !- Heating Design Air Flow Method
  ,                                       !- Heating Design Air Flow Rate {m3/s}
  ,                                       !- Heating Maximum Air Flow per Zone Floor Area {m3/s-m2}
  ,                                       !- Heating Maximum Air Flow {m3/s}
  ,                                       !- Heating Maximum Air Flow Fraction
  ,                                       !- Design Zone Air Distribution Effectiveness in Cooling Mode
  ,                                       !- Design Zone Air Distribution Effectiveness in Heating Mode
  No,                                     !- Account for Dedicated Outdoor Air System
  NeutralSupplyAir,                       !- Dedicated Outdoor Air System Control Strategy
  autosize,                               !- Dedicated Outdoor Air Low Setpoint Temperature for Design {C}
  autosize;                               !- Dedicated Outdoor Air High Setpoint Temperature for Design {C}

OS:ZoneHVAC:EquipmentList,
  {47ff66d2-2750-4bbf-8946-daf5b08617df}, !- Handle
  {2bf610ef-4957-4f7b-bdd1-04c718d1f4d6}, !- Name
  {7e9601de-2f6b-4ff2-a93a-79e46cd3246a}; !- Thermal Zone

OS:Facility,
  {50ae3a9c-fff5-4260-b940-0acd2acabba2}; !- Handle

OS:Building,
  {1350cc27-5016-46be-ba03-538dc2dde58f}, !- Handle
  bldg-1,                                 !- Name
  ,                                       !- Building Sector Type
  ,                                       !- North Axis {deg}
  ,                                       !- Nominal Floor to Floor Height {m}
  ,                                       !- Space Type Name
  ,                                       !- Default Construction Set Name
  ,                                       !- Default Schedule Set Name
  ,                                       !- Standards Number of Stories
  ,                                       !- Standards Number of Above Ground Stories
  ,                                       !- Standards Building Type
  ,                                       !- Standards Number of Living Units
  ,                                       !- Relocatable
  ;                                       !- Nominal Floor to Ceiling Height {m}

OS:BuildingStory,
  {a821a86d-4c51-46a0-a22f-89c713ceb1b9}, !- Handle
  Level 1,                                !- Name
  ,                                       !- Nominal Z Coordinate {m}
  ,                                       !- Nominal Floor to Floor Height {m}
  ,                                       !- Default Construction Set Name
  ,                                       !- Default Schedule Set Name
  {428a8010-3438-4e3c-ab59-2f1acc93d639}; !- Group Rendering Name

OS:Space,
  {cc05de3f-940e-415d-b732-9d83e912a4c0}, !- Handle
  101 Space,                              !- Name
  {c664ce2f-0c2c-44ff-a28f-4c9082a3be1b}, !- Space Type Name
  ,                                       !- Default Construction Set Name
  ,                                       !- Default Schedule Set Name
  ,                                       !- Direction of Relative North {deg}
  ,                                       !- X Origin {m}
  ,                                       !- Y Origin {m}
  ,                                       !- Z Origin {m}
  {a821a86d-4c51-46a0-a22f-89c713ceb1b9}, !- Building Story Name
  {2a758807-8ca8-4bb7-9557-f93cbc35b295}; !- Thermal Zone Name

OS:SpaceType,
  {c664ce2f-0c2c-44ff-a28f-4c9082a3be1b}, !- Handle
  OfficeEnclosed,                         !- Name
  ,                                       !- Default Construction Set Name
  ,                                       !- Default Schedule Set Name
  {1b5ab6a0-de3c-4696-8726-192609eb85be}; !- Group Rendering Name

OS:Space,
  {7d693676-e744-459d-bbb9-195db947ee18}, !- Handle
  102 Space,                              !- Name
  {c664ce2f-0c2c-44ff-a28f-4c9082a3be1b}, !- Space Type Name
  ,                                       !- Default Construction Set Name
  ,                                       !- Default Schedule Set Name
  ,                                       !- Direction of Relative North {deg}
  ,                                       !- X Origin {m}
  ,                                       !- Y Origin {m}
  ,                                       !- Z Origin {m}
  {a821a86d-4c51-46a0-a22f-89c713ceb1b9}, !- Building Story Name
  {7f2afbd4-5248-4f38-a812-727ceeebd1e6}; !- Thermal Zone Name

OS:Space,
  {ca6c0af6-8d67-40c0-ab36-9aa706d82455}, !- Handle
  103 Space,                              !- Name
  {c664ce2f-0c2c-44ff-a28f-4c9082a3be1b}, !- Space Type Name
  ,                                       !- Default Construction Set Name
  ,                                       !- Default Schedule Set Name
  ,                                       !- Direction of Relative North {deg}
  ,                                       !- X Origin {m}
  ,                                       !- Y Origin {m}
  ,                                       !- Z Origin {m}
  {a821a86d-4c51-46a0-a22f-89c713ceb1b9}, !- Building Story Name
  {9f100269-b8d5-4f87-8bd9-3db3b062bcef}; !- Thermal Zone Name

OS:Space,
  {59c31c64-326f-4ef4-8743-cc2a72943ac9}, !- Handle
  104 Space,                              !- Name
  {c664ce2f-0c2c-44ff-a28f-4c9082a3be1b}, !- Space Type Name