
OS:Version,
  {5027c745-a9b2-408a-893b-f3bb262b0306}, !- Handle
  2.6.0;                                  !- Version Identifier

OS:Schedule:Year,
  {9fe4b027-c8a2-47c7-aa5b-3e5098fa16f8}, !- Handle
  Office Lighting - 6 AM to 11 PM,        !- Name
  {edf7f516-61aa-4c4d-9abc-36c0fc4b25e6}, !- Schedule Type Limits Name
  12,                                     !- Month 1
  31,                                     !- Day 1
  {959cd696-b4d9-4de8-9283-7f5532e6a8df}; !- Week Schedule Until Date 1

OS:ScheduleTypeLimits,
  {edf7f516-61aa-4c4d-9abc-36c0fc4b25e6}, !- Handle
  Fraction,                               !- Name
  ,                                       !- Lower Limit Value
  ,                                       !- Upper Limit Value
  ,                                       !- Numeric Type
  Dimensionless;                          !- Unit Type

OS:YearDescription,
  {68395789-e6a6-4a8f-afb6-1ee7d2979093}, !- Handle
  2018,                                   !- Calendar Year
  ,                                       !- Day of Week for Start Day
  ;                                       !- Is Leap Year

OS:Schedule:Week,
  {959cd696-b4d9-4de8-9283-7f5532e6a8df}, !- Handle
  Office Lighting - 6 AM to 11 PM,        !- Name
  ,                                       !- Schedule Rendering Name
  {08e45ef7-5fc7-4ea2-93ff-2a88317da625}, !- Sunday Schedule:Day Name
  {08e45ef7-5fc7-4ea2-93ff-2a88317da625}, !- Monday Schedule:Day Name
  {08e45ef7-5fc7-4ea2-93ff-2a88317da625}, !- Tuesday Schedule:Day Name
  {08e45ef7-5fc7-4ea2-93ff-2a88317da625}, !- Wednesday Schedule:Day Name
  {08e45ef7-5fc7-4ea2-93ff-2a88317da625}, !- Thursday Schedule:Day Name
  {08e45ef7-5fc7-4ea2-93ff-2a88317da625}, !- Friday Schedule:Day Name
  {08e45ef7-5fc7-4ea2-93ff-2a88317da625}, !- Saturday Schedule:Day Name
  {08e45ef7-5fc7-4ea2-93ff-2a88317da625}, !- Holiday Schedule:Day Name
  {08e45ef7-5fc7-4ea2-93ff-2a88317da625}, !- SummerDesignDay Schedule:Day Name
  {08e45ef7-5fc7-4ea2-93ff-2a88317da625}, !- WinterDesignDay Schedule:Day Name
  {08e45ef7-5fc7-4ea2-93ff-2a88317da625}, !- CustomDay1 Schedule:Day Name
  {08e45ef7-5fc7-4ea2-93ff-2a88317da625}; !- CustomDay2 Schedule:Day Name

OS:Schedule:Day,
  {08e45ef7-5fc7-4ea2-93ff-2a88317da625}, !- Handle
  Office Lighting - 6 AM to 11 PM,        !- Name
  {edf7f516-61aa-4c4d-9abc-36c0fc4b25e6}, !- Schedule Type Limits Name
  ,                                       !- Interpolate to Timestep
  1,                                      !- Hour 1
  0,                                      !- Minute 1
  0,                                      !- Value Until Time 1
  2,                                      !- Hour 2
  0,                                      !- Minute 2
  0,                                      !- Value Until Time 2
  3,                                      !- Hour 3
  0,                                      !- Minute 3
  0,                                      !- Value Until Time 3
  4,                                      !- Hour 4
  0,                                      !- Minute 4
  0,                                      !- Value Until Time 4
  5,                                      !- Hour 5
  0,                                      !- Minute 5
  0,                                      !- Value Until Time 5
  6,                                      !- Hour 6
  0,                                      !- Minute 6
  0,                                      !- Value Until Time 6
  7,                                      !- Hour 7
  0,                                      !- Minute 7
  0.1,                                    !- Value Until Time 7
  8,                                      !- Hour 8
  0,                                      !- Minute 8
  0.3,                                    !- Value Until Time 8
  9,                                      !- Hour 9
  0,                                      !- Minute 9
  0.9,                                    !- Value Until Time 9
  10,                                     !- Hour 10
  0,                                      !- Minute 10
  0.9,                                    !- Value Until Time 10
  11,                                     !- Hour 11
  0,                                      !- Minute 11
  0.9,                                    !- Value Until Time 11
  12,                                     !- Hour 12
  0,                                      !- Minute 12
  0.9,                                    !- Value Until Time 12
  13,                                     !- Hour 13
  0,                                      !- Minute 13
  0.8,                                    !- Value Until Time 13
  14,                                     !- Hour 14
  0,                                      !- Minute 14
  0.9,                                    !- Value Until Time 14
  15,                                     !- Hour 15
  0,                                      !- Minute 15
  0.9,                                    !- Value Until Time 15
  16,                                     !- Hour 16
  0,                                      !- Minute 16
  0.9,                                    !- Value Until Time 16
  17,                                     !- Hour 17
  0,                                      !- Minute 17
  0.9,                                    !- Value Until Time 17
  18,                                     !- Hour 18
  0,                                      !- Minute 18
  0.5,                                    !- Value Until Time 18
  19,                                     !- Hour 19
  0,                                      !- Minute 19
  0.3,                                    !- Value Until Time 19
  20,                                     !- Hour 20
  0,                                      !- Minute 20
  0.3,                                    !- Value Until Time 20
  21,                                     !- Hour 21
  0,                                      !- Minute 21
  0.2,                                    !- Value Until Time 21
  22,                                     !- Hour 22
  0,                                      !- Minute 22
  0.2,                                    !- Value Until Time 22
  23,                                     !- Hour 23
  0,                                      !- Minute 23
  0,                                      !- Value Until Time 23
  24,                                     !- Hour 24
  0,                                      !- Minute 24
  0;                                      !- Value Until Time 24

OS:Schedule:Year,
  {4d68ee64-13cd-4d62-b9cf-029177cc9f0c}, !- Handle
  Common Office Occupancy - 8 AM to 5 PM, !- Name
  {edf7f516-61aa-4c4d-9abc-36c0fc4b25e6}, !- Schedule Type Limits Name
  12,                                     !- Month 1
  31,                                     !- Day 1
  {16c81e1d-e508-4ddf-8c61-c03630164575}; !- Week Schedule Until Date 1

OS:Schedule:Week,
  {16c81e1d-e508-4ddf-8c61-c03630164575}, !- Handle
  Common Office Occupancy - 8 AM to 5 PM, !- Name
  ,                                       !- Schedule Rendering Name
  {3a00efc5-2254-44e2-9acb-3b6ab8c98e7b}, !- Sunday Schedule:Day Name
  {3a00efc5-2254-44e2-9acb-3b6ab8c98e7b}, !- Monday Schedule:Day Name
  {3a00efc5-2254-44e2-9acb-3b6ab8c98e7b}, !- Tuesday Schedule:Day Name
  {3a00efc5-2254-44e2-9acb-3b6ab8c98e7b}, !- Wednesday Schedule:Day Name
  {3a00efc5-2254-44e2-9acb-3b6ab8c98e7b}, !- Thursday Schedule:Day Name
  {3a00efc5-2254-44e2-9acb-3b6ab8c98e7b}, !- Friday Schedule:Day Name
  {3a00efc5-2254-44e2-9acb-3b6ab8c98e7b}, !- Saturday Schedule:Day Name
  {3a00efc5-2254-44e2-9acb-3b6ab8c98e7b}, !- Holiday Schedule:Day Name
  {3a00efc5-2254-44e2-9acb-3b6ab8c98e7b}, !- SummerDesignDay Schedule:Day Name
  {3a00efc5-2254-44e2-9acb-3b6ab8c98e7b}, !- WinterDesignDay Schedule:Day Name
  {3a00efc5-2254-44e2-9acb-3b6ab8c98e7b}, !- CustomDay1 Schedule:Day Name
  {3a00efc5-2254-44e2-9acb-3b6ab8c98e7b}; !- CustomDay2 Schedule:Day Name

OS:Schedule:Day,
  {3a00efc5-2254-44e2-9acb-3b6ab8c98e7b}, !- Handle
  Common Office Occupancy - 8 AM to 5 PM, !- Name
  {edf7f516-61aa-4c4d-9abc-36c0fc4b25e6}, !- Schedule Type Limits Name
  ,                                       !- Interpolate to Timestep
  1,                                      !- Hour 1
  0,                                      !- Minute 1
  0,                                      !- Value Until Time 1
  2,                                      !- Hour 2
  0,                                      !- Minute 2
  0,                                      !- Value Until Time 2
  3,                                      !- Hour 3
  0,                                      !- Minute 3
  0,                                      !- Value Until Time 3
  4,                                      !- Hour 4
  0,                                      !- Minute 4
  0,                                      !- Value Until Time 4
  5,                                      !- Hour 5
  0,                                      !- Minute 5
  0,                                      !- Value Until Time 5
  6,                                      !- Hour 6
  0,                                      !- Minute 6
  0,                                      !- Value Until Time 6
  7,                                      !- Hour 7
  0,                                      !- Minute 7
  0,                                      !- Value Until Time 7
  8,                                      !- Hour 8
  0,                                      !- Minute 8
  0.1,                                    !- Value Until Time 8
  9,                                      !- Hour 9
  0,                                      !- Minute 9
  0.2,                                    !- Value Until Time 9
  10,                                     !- Hour 10
  0,                                      !- Minute 10
  0.95,                                   !- Value Until Time 10
  11,                                     !- Hour 11
  0,                                      !- Minute 11
  0.95,                                   !- Value Until Time 11
  12,                                     !- Hour 12
  0,                                      !- Minute 12
  0.45,                                   !- Value Until Time 12
  13,                                     !- Hour 13
  0,                                      !- Minute 13
  0.45,                                   !- Value Until Time 13
  14,                                     !- Hour 14
  0,                                      !- Minute 14
  0.95,                                   !- Value Until Time 14
  15,                                     !- Hour 15
  0,                                      !- Minute 15
  0.95,                                   !- Value Until Time 15
  16,                                     !- Hour 16
  0,                                      !- Minute 16
  0.95,                                   !- Value Until Time 16
  17,                                     !- Hour 17
  0,                                      !- Minute 17
  0.95,                                   !- Value Until Time 17
  18,                                     !- Hour 18
  0,                                      !- Minute 18
  0.95,                                   !- Value Until Time 18
  19,                                     !- Hour 19
  0,                                      !- Minute 19
  0.3,                                    !- Value Until Time 19
  20,                                     !- Hour 20
  0,                                      !- Minute 20
  0.1,                                    !- Value Until Time 20
  21,                                     !- Hour 21
  0,                                      !- Minute 21
  0.1,                                    !- Value Until Time 21
  22,                                     !- Hour 22
  0,                                      !- Minute 22
  0.1,                                    !- Value Until Time 22
  23,                                     !- Hour 23
  0,                                      !- Minute 23
  0,                                      !- Value Until Time 23
  24,                                     !- Hour 24
  0,                                      !- Minute 24
  0;                                      !- Value Until Time 24

OS:ThermalZone,
  {9455705e-52c6-41d7-8af2-a35ea35e76c5}, !- Handle
  Zone Zone 1,                            !- Name
  ,                                       !- Multiplier
  ,                                       !- Ceiling Height {m}
  ,                                       !- Volume {m3}
  ,                                       !- Floor Area {m2}
  ,                                       !- Zone Inside Convection Algorithm
  ,                                       !- Zone Outside Convection Algorithm
  ,                                       !- Zone Conditioning Equipment List Name
  {403ade4b-b518-4fb1-8307-b2578cefa4b4}, !- Zone Air Inlet Port List
  {afb6b4f6-6348-44a7-9cd2-1e2cc0c9cfc6}, !- Zone Air Exhaust Port List
  {0715fea7-7270-4569-92c5-e118f9d4b14d}, !- Zone Air Node Name
  ,                                       !- Zone Return Air Node Name
  ,                                       !- Primary Daylighting Control Name
  ,                                       !- Fraction of Zone Controlled by Primary Daylighting Control
  ,                                       !- Secondary Daylighting Control Name
  ,                                       !- Fraction of Zone Controlled by Secondary Daylighting Control
  ,                                       !- Illuminance Map Name
  {6726a73b-ea3a-418a-a190-420c63cb7a7e}, !- Group Rendering Name
  ,                                       !- Thermostat Name
  No;                                     !- Use Ideal Air Loads

OS:Node,
  {adbd219c-0cd9-4030-8083-59f2c2576a0b}, !- Handle
  {40e82ecf-16a0-468d-84c5-3f1fe372d090}, !- Name
  {0715fea7-7270-4569-92c5-e118f9d4b14d}, !- Inlet Port
  ;                                       !- Outlet Port

OS:Connection,
  {0715fea7-7270-4569-92c5-e118f9d4b14d}, !- Handle
  {0041eb95-deb1-475e-9ab2-799ae5fcabad}, !- Name
  {9455705e-52c6-41d7-8af2-a35ea35e76c5}, !- Source Object
  11,                                     !- Outlet Port
  {adbd219c-0cd9-4030-8083-59f2c2576a0b}, !- Target Object
  2;                                      !- Inlet Port

OS:PortList,
  {403ade4b-b518-4fb1-8307-b2578cefa4b4}, !- Handle
  {c3d1b4b1-5d10-4deb-a5c4-098be946dbda}, !- Name
  {9455705e-52c6-41d7-8af2-a35ea35e76c5}; !- HVAC Component

OS:PortList,
  {afb6b4f6-6348-44a7-9cd2-1e2cc0c9cfc6}, !- Handle
  {f437de61-f7ef-4aab-9be4-10431478df2d}, !- Name
  {9455705e-52c6-41d7-8af2-a35ea35e76c5}; !- HVAC Component

OS:Sizing:Zone,
  {9afe9a99-313e-495a-b38e-805e550b5208}, !- Handle
  {9455705e-52c6-41d7-8af2-a35ea35e76c5}, !- Zone or ZoneList Name
  SupplyAirTemperature,                   !- Zone Cooling Design Supply Air Temperature Input Method
  14,                                     !- Zone Cooling Design Supply Air Temperature {C}
  11.11,                                  !- Zone Cooling Design Supply Air Temperature Difference {deltaC}
  SupplyAirTemperature,                   !- Zone Heating Design Supply Air Temperature Input Method
  40,                                     !- Zone Heating Design Supply Air Temperature {C}
  11.11,                                  !- Zone Heating Design Supply Air Temperature Difference {deltaC}
  0.0085,                                 !- Zone Cooling Design Supply Air Humidity Ratio {kg-H2O/kg-air}
  0.008,                                  !- Zone Heating Design Supply Air Humidity Ratio {kg-H2O/kg-air}
  ,                                       !- Zone Heating Sizing Factor
  ,                                       !- Zone Cooling Sizing Factor
  DesignDay,                              !- Cooling Design Air Flow Method
  ,                                       !- Cooling Design Air Flow Rate {m3/s}
  ,                                       !- Cooling Minimum Air Flow per Zone Floor Area {m3/s-m2}
  ,                                       !- Cooling Minimum Air Flow {m3/s}
  ,                                       !- Cooling Minimum Air Flow Fraction
  DesignDay,                              !- Heating Design Air Flow Method
  ,                                       !- Heating Design Air Flow Rate {m3/s}
  ,                                       !- Heating Maximum Air Flow per Zone Floor Area {m3/s-m2}
  ,                                       !- Heating Maximum Air Flow {m3/s}
  ,                                       !- Heating Maximum Air Flow Fraction
  ,                                       !- Design Zone Air Distribution Effectiveness in Cooling Mode
  ,                                       !- Design Zone Air Distribution Effectiveness in Heating Mode
  No,                                     !- Account for Dedicated Outdoor Air System
  NeutralSupplyAir,                       !- Dedicated Outdoor Air System Control Strategy
  autosize,                               !- Dedicated Outdoor Air Low Setpoint Temperature for Design {C}
  autosize;                               !- Dedicated Outdoor Air High Setpoint Temperature for Design {C}

OS:ZoneHVAC:EquipmentList,
  {13f1d3dd-4bac-4d4a-a32e-cb0f816d4031}, !- Handle
  {e60aa4c0-3249-41e7-8ce8-30f29e2840d8}, !- Name
  {9455705e-52c6-41d7-8af2-a35ea35e76c5}; !- Thermal Zone

OS:ThermalZone,
  {c0dbc851-0af3-4366-9ce9-a01f3a2ccdae}, !- Handle
  Zone Zone 2,                            !- Name
  ,                                       !- Multiplier
  ,                                       !- Ceiling Height {m}
  ,                                       !- Volume {m3}
  ,                                       !- Floor Area {m2}
  ,                                       !- Zone Inside Convection Algorithm
  ,                                       !- Zone Outside Convection Algorithm
  ,                                       !- Zone Conditioning Equipment List Name
  {80d8e1fa-d24d-4044-8176-7acc2f4de190}, !- Zone Air Inlet Port List
  {5dfaba8a-8bff-44db-ae91-6a1a74893c68}, !- Zone Air Exhaust Port List
  {10220907-f726-447f-abcd-cfea9dbf179b}, !- Zone Air Node Name
  ,                                       !- Zone Return Air Node Name
  ,                                       !- Primary Daylighting Control Name
  ,                                       !- Fraction of Zone Controlled by Primary Daylighting Control
  ,                                       !- Secondary Daylighting Control Name
  ,                                       !- Fraction of Zone Controlled by Secondary Daylighting Control
  ,                                       !- Illuminance Map Name
  {f0638064-4066-45e2-8e4a-5621055f8b86}, !- Group Rendering Name
  ,                                       !- Thermostat Name
  No;                                     !- Use Ideal Air Loads

OS:Node,
  {b78cc8f9-9a62-4c86-a9b2-50886c76564d}, !- Handle
  {ed8d9867-09ef-4039-9fca-de1ebe7e3e10}, !- Name
  {10220907-f726-447f-abcd-cfea9dbf179b}, !- Inlet Port
  ;                                       !- Outlet Port

OS:Connection,
  {10220907-f726-447f-abcd-cfea9dbf179b}, !- Handle
  {fad2ac74-7f84-495c-b1c4-b7b20497962c}, !- Name
  {c0dbc851-0af3-4366-9ce9-a01f3a2ccdae}, !- Source Object
  11,                                     !- Outlet Port
  {b78cc8f9-9a62-4c86-a9b2-50886c76564d}, !- Target Object
  2;                                      !- Inlet Port

OS:PortList,
  {80d8e1fa-d24d-4044-8176-7acc2f4de190}, !- Handle
  {f31e162b-5156-4105-a5ea-12cbdb41c4a5}, !- Name
  {c0dbc851-0af3-4366-9ce9-a01f3a2ccdae}; !- HVAC Component

OS:PortList,
  {5dfaba8a-8bff-44db-ae91-6a1a74893c68}, !- Handle
  {06784fe8-14c0-4aba-a899-7323c80d655d}, !- Name
  {c0dbc851-0af3-4366-9ce9-a01f3a2ccdae}; !- HVAC Component

OS:Sizing:Zone,
  {73d7ec0f-12d0-4bcf-883b-5008b9a5a4b1}, !- Handle
  {c0dbc851-0af3-4366-9ce9-a01f3a2ccdae}, !- Zone or ZoneList Name
  SupplyAirTemperature,                   !- Zone Cooling Design Supply Air Temperature Input Method
  14,                                     !- Zone Cooling Design Supply Air Temperature {C}
  11.11,                                  !- Zone Cooling Design Supply Air Temperature Difference {deltaC}
  SupplyAirTemperature,                   !- Zone Heating Design Supply Air Temperature Input Method
  40,                                     !- Zone Heating Design Supply Air Temperature {C}
  11.11,                                  !- Zone Heating Design Supply Air Temperature Difference {deltaC}
  0.0085,                                 !- Zone Cooling Design Supply Air Humidity Ratio {kg-H2O/kg-air}
  0.008,                                  !- Zone Heating Design Supply Air Humidity Ratio {kg-H2O/kg-air}
  ,                                       !- Zone Heating Sizing Factor
  ,                                       !- Zone Cooling Sizing Factor
  DesignDay,                              !- Cooling Design Air Flow Method
  ,                                       !- Cooling Design Air Flow Rate {m3/s}
  ,                                       !- Cooling Minimum Air Flow per Zone Floor Area {m3/s-m2}
  ,                                       !- Cooling Minimum Air Flow {m3/s}
  ,                                       !- Cooling Minimum Air Flow Fraction
  DesignDay,                              !- Heating Design Air Flow Method
  ,                                       !- Heating Design Air Flow Rate {m3/s}
  ,                                       !- Heating Maximum Air Flow per Zone Floor Area {m3/s-m2}
  ,                                       !- Heating Maximum Air Flow {m3/s}
  ,                                       !- Heating Maximum Air Flow Fraction
  ,                                       !- Design Zone Air Distribution Effectiveness in Cooling Mode
  ,                                       !- Design Zone Air Distribution Effectiveness in Heating Mode
  No,                                     !- Account for Dedicated Outdoor Air System
  NeutralSupplyAir,                       !- Dedicated Outdoor Air System Control Strategy
  autosize,                               !- Dedicated Outdoor Air Low Setpoint Temperature for Design {C}
  autosize;                               !- Dedicated Outdoor Air High Setpoint Temperature for Design {C}

OS:ZoneHVAC:EquipmentList,
  {82276a9d-ab8b-4977-85b2-4f7180d02c4e}, !- Handle
  {7132dd13-912b-4fd9-8bc8-f04e2248eb77}, !- Name
  {c0dbc851-0af3-4366-9ce9-a01f3a2ccdae}; !- Thermal Zone

OS:ThermalZone,
  {220b4ef2-88c9-4f8b-9cfa-9be9431d7572}, !- Handle
  Zone Zone 3,                            !- Name
  ,                                       !- Multiplier
  ,                                       !- Ceiling Height {m}
  ,                                       !- Volume {m3}
  ,                                       !- Floor Area {m2}
  ,                                       !- Zone Inside Convection Algorithm
  ,                                       !- Zone Outside Convection Algorithm
  ,                                       !- Zone Conditioning Equipment List Name
  {3ce73c94-482b-4c25-812d-d131c0e44f3d}, !- Zone Air Inlet Port List
  {0719cc4c-b9bc-4c33-87d5-c9fddeb3ffc1}, !- Zone Air Exhaust Port List
  {32827ccb-d810-4acb-bf33-6014e0864cde}, !- Zone Air Node Name
  ,                                       !- Zone Return Air Node Name
  ,                                       !- Primary Daylighting Control Name
  ,                                       !- Fraction of Zone Controlled by Primary Daylighting Control
  ,                                       !- Secondary Daylighting Control Name
  ,                                       !- Fraction of Zone Controlled by Secondary Daylighting Control
  ,                                       !- Illuminance Map Name
  {497492a3-289c-4773-ba40-7400499e8916}, !- Group Rendering Name
  ,                                       !- Thermostat Name
  No;                                     !- Use Ideal Air Loads

OS:Node,
  {55a9c8c3-c93d-4ab0-ba1b-e0ca7f1935c6}, !- Handle
  {b5fb61bf-3cea-4d51-8170-b4be2be69c06}, !- Name
  {32827ccb-d810-4acb-bf33-6014e0864cde}, !- Inlet Port
  ;                                       !- Outlet Port

OS:Connection,
  {32827ccb-d810-4acb-bf33-6014e0864cde}, !- Handle
  {ed4bcf36-1b20-4f9a-9804-7db14fece544}, !- Name
  {220b4ef2-88c9-4f8b-9cfa-9be9431d7572}, !- Source Object
  11,                                     !- Outlet Port
  {55a9c8c3-c93d-4ab0-ba1b-e0ca7f1935c6}, !- Target Object
  2;                                      !- Inlet Port

OS:PortList,
  {3ce73c94-482b-4c25-812d-d131c0e44f3d}, !- Handle
  {4ff7f5ce-007b-4808-8ee3-779e42e237a0}, !- Name
  {220b4ef2-88c9-4f8b-9cfa-9be9431d7572}; !- HVAC Component

OS:PortList,
  {0719cc4c-b9bc-4c33-87d5-c9fddeb3ffc1}, !- Handle
  {68e6cb18-835a-4d3d-9a84-1129e29574cc}, !- Name
  {220b4ef2-88c9-4f8b-9cfa-9be9431d7572}; !- HVAC Component

OS:Sizing:Zone,
  {db6be7c7-7bb1-4d39-99bb-9c28a0184c78}, !- Handle
  {220b4ef2-88c9-4f8b-9cfa-9be9431d7572}, !- Zone or ZoneList Name
  SupplyAirTemperature,                   !- Zone Cooling Design Supply Air Temperature Input Method
  14,                                     !- Zone Cooling Design Supply Air Temperature {C}
  11.11,                                  !- Zone Cooling Design Supply Air Temperature Difference {deltaC}
  SupplyAirTemperature,                   !- Zone Heating Design Supply Air Temperature Input Method
  40,                                     !- Zone Heating Design Supply Air Temperature {C}
  11.11,                                  !- Zone Heating Design Supply Air Temperature Difference {deltaC}
  0.0085,                                 !- Zone Cooling Design Supply Air Humidity Ratio {kg-H2O/kg-air}
  0.008,                                  !- Zone Heating Design Supply Air Humidity Ratio {kg-H2O/kg-air}
  ,                                       !- Zone Heating Sizing Factor
  ,                                       !- Zone Cooling Sizing Factor
  DesignDay,                              !- Cooling Design Air Flow Method
  ,                                       !- Cooling Design Air Flow Rate {m3/s}
  ,                                       !- Cooling Minimum Air Flow per Zone Floor Area {m3/s-m2}
  ,                                       !- Cooling Minimum Air Flow {m3/s}
  ,                                       !- Cooling Minimum Air Flow Fraction
  DesignDay,                              !- Heating Design Air Flow Method
  ,                                       !- Heating Design Air Flow Rate {m3/s}
  ,                                       !- Heating Maximum Air Flow per Zone Floor Area {m3/s-m2}
  ,                                       !- Heating Maximum Air Flow {m3/s}
  ,                                       !- Heating Maximum Air Flow Fraction
  ,                                       !- Design Zone Air Distribution Effectiveness in Cooling Mode
  ,                                       !- Design Zone Air Distribution Effectiveness in Heating Mode
  No,                                     !- Account for Dedicated Outdoor Air System
  NeutralSupplyAir,                       !- Dedicated Outdoor Air System Control Strategy
  autosize,                               !- Dedicated Outdoor Air Low Setpoint Temperature for Design {C}
  autosize;                               !- Dedicated Outdoor Air High Setpoint Temperature for Design {C}

OS:ZoneHVAC:EquipmentList,
  {fa760744-98e3-4217-ac37-b63229975e27}, !- Handle
  {7df7f287-ca89-4f66-b1ee-58790ae5add7}, !- Name
  {220b4ef2-88c9-4f8b-9cfa-9be9431d7572}; !- Thermal Zone

OS:ThermalZone,
  {8f645bad-5ed7-4254-a798-a62f9c627405}, !- Handle
  Zone Zone 4,                            !- Name
  ,                                       !- Multiplier
  ,                                       !- Ceiling Height {m}
  ,                                       !- Volume {m3}
  ,                                       !- Floor Area {m2}
  ,                                       !- Zone Inside Convection Algorithm
  ,                                       !- Zone Outside Convection Algorithm
  ,                                       !- Zone Conditioning Equipment List Name
  {0bd6a005-e78f-4a72-a3bc-99b12d92d2f1}, !- Zone Air Inlet Port List
  {6db7355c-a531-46ee-83d1-c3b2f8c943ca}, !- Zone Air Exhaust Port List
  {4d8832ad-0abb-499f-8b14-90da135e7b22}, !- Zone Air Node Name
  ,                                       !- Zone Return Air Node Name
  ,                                       !- Primary Daylighting Control Name
  ,                                       !- Fraction of Zone Controlled by Primary Daylighting Control
  ,                                       !- Secondary Daylighting Control Name
  ,                                       !- Fraction of Zone Controlled by Secondary Daylighting Control
  ,                                       !- Illuminance Map Name
  {ae23d5ca-97dc-480f-91f5-3921e120ae75}, !- Group Rendering Name
  ,                                       !- Thermostat Name
  No;                                     !- Use Ideal Air Loads

OS:Node,
  {b2f33c1b-e609-4047-a0f9-389c74cf215f}, !- Handle
  {c2316f44-4a0b-46a7-907a-7ea9947d9171}, !- Name
  {4d8832ad-0abb-499f-8b14-90da135e7b22}, !- Inlet Port
  ;                                       !- Outlet Port

OS:Connection,
  {4d8832ad-0abb-499f-8b14-90da135e7b22}, !- Handle
  {1f85ee33-cf56-42d3-990a-8a231726bfab}, !- Name
  {8f645bad-5ed7-4254-a798-a62f9c627405}, !- Source Object
  11,                                     !- Outlet Port
  {b2f33c1b-e609-4047-a0f9-389c74cf215f}, !- Target Object
  2;                                      !- Inlet Port

OS:PortList,
  {0bd6a005-e78f-4a72-a3bc-99b12d92d2f1}, !- Handle
  {a91d2b5b-4638-4b10-a21b-75abb58dbfe4}, !- Name