
OS:Version,
  {caa1c376-4590-48b3-b032-71e36c7e4231}, !- Handle
  2.6.0;                                  !- Version Identifier

OS:Schedule:Year,
  {a31edf49-f5f1-4966-b097-fc1656e9ca07}, !- Handle
  Office Lighting - 6 AM to 11 PM,        !- Name
  {b78a7876-ed63-4a0e-b7df-644c93540879}, !- Schedule Type Limits Name
  12,                                     !- Month 1
  31,                                     !- Day 1
  {92b2fd66-f062-4f12-b0a5-d7fd75719521}; !- Week Schedule Until Date 1

OS:ScheduleTypeLimits,
  {b78a7876-ed63-4a0e-b7df-644c93540879}, !- Handle
  Fraction,                               !- Name
  ,                                       !- Lower Limit Value
  ,                                       !- Upper Limit Value
  ,                                       !- Numeric Type
  Dimensionless;                          !- Unit Type

OS:YearDescription,
  {d1d41ff8-4faf-43fd-ab98-78714d975dce}, !- Handle
  2018,                                   !- Calendar Year
  ,                                       !- Day of Week for Start Day
  ;                                       !- Is Leap Year

OS:Schedule:Week,
  {92b2fd66-f062-4f12-b0a5-d7fd75719521}, !- Handle
  Office Lighting - 6 AM to 11 PM,        !- Name
  ,                                       !- Schedule Rendering Name
  {5f582406-758d-4227-bc39-46d65fb2205e}, !- Sunday Schedule:Day Name
  {5f582406-758d-4227-bc39-46d65fb2205e}, !- Monday Schedule:Day Name
  {5f582406-758d-4227-bc39-46d65fb2205e}, !- Tuesday Schedule:Day Name
  {5f582406-758d-4227-bc39-46d65fb2205e}, !- Wednesday Schedule:Day Name
  {5f582406-758d-4227-bc39-46d65fb2205e}, !- Thursday Schedule:Day Name
  {5f582406-758d-4227-bc39-46d65fb2205e}, !- Friday Schedule:Day Name
  {5f582406-758d-4227-bc39-46d65fb2205e}, !- Saturday Schedule:Day Name
  {5f582406-758d-4227-bc39-46d65fb2205e}, !- Holiday Schedule:Day Name
  {5f582406-758d-4227-bc39-46d65fb2205e}, !- SummerDesignDay Schedule:Day Name
  {5f582406-758d-4227-bc39-46d65fb2205e}, !- WinterDesignDay Schedule:Day Name
  {5f582406-758d-4227-bc39-46d65fb2205e}, !- CustomDay1 Schedule:Day Name
  {5f582406-758d-4227-bc39-46d65fb2205e}; !- CustomDay2 Schedule:Day Name

OS:Schedule:Day,
  {5f582406-758d-4227-bc39-46d65fb2205e}, !- Handle
  Office Lighting - 6 AM to 11 PM,        !- Name
  {b78a7876-ed63-4a0e-b7df-644c93540879}, !- Schedule Type Limits Name
  ,                                       !- Interpolate to Timestep
  1,                                      !- Hour 1
  0,                                      !- Minute 1
  0,                                      !- Value Until Time 1
  2,                                      !- Hour 2
  0,                                      !- Minute 2
  0,                                      !- Value Until Time 2
  3,                                      !- Hour 3
  0,                                      !- Minute 3
  0,                                      !- Value Until Time 3
  4,                                      !- Hour 4
  0,                                      !- Minute 4
  0,                                      !- Value Until Time 4
  5,                                      !- Hour 5
  0,                                      !- Minute 5
  0,                                      !- Value Until Time 5
  6,                                      !- Hour 6
  0,                                      !- Minute 6
  0,                                      !- Value Until Time 6
  7,                                      !- Hour 7
  0,                                      !- Minute 7
  0.1,                                    !- Value Until Time 7
  8,                                      !- Hour 8
  0,                                      !- Minute 8
  0.3,                                    !- Value Until Time 8
  9,                                      !- Hour 9
  0,                                      !- Minute 9
  0.9,                                    !- Value Until Time 9
  10,                                     !- Hour 10
  0,                                      !- Minute 10
  0.9,                                    !- Value Until Time 10
  11,                                     !- Hour 11
  0,                                      !- Minute 11
  0.9,                                    !- Value Until Time 11
  12,                                     !- Hour 12
  0,                                      !- Minute 12
  0.9,                                    !- Value Until Time 12
  13,                                     !- Hour 13
  0,                                      !- Minute 13
  0.8,                                    !- Value Until Time 13
  14,                                     !- Hour 14
  0,                                      !- Minute 14
  0.9,                                    !- Value Until Time 14
  15,                                     !- Hour 15
  0,                                      !- Minute 15
  0.9,                                    !- Value Until Time 15
  16,                                     !- Hour 16
  0,                                      !- Minute 16
  0.9,                                    !- Value Until Time 16
  17,                                     !- Hour 17
  0,                                      !- Minute 17
  0.9,                                    !- Value Until Time 17
  18,                                     !- Hour 18
  0,                                      !- Minute 18
  0.5,                                    !- Value Until Time 18
  19,                                     !- Hour 19
  0,                                      !- Minute 19
  0.3,                                    !- Value Until Time 19
  20,                                     !- Hour 20
  0,                                      !- Minute 20
  0.3,                                    !- Value Until Time 20
  21,                                     !- Hour 21
  0,                                      !- Minute 21
  0.2,                                    !- Value Until Time 21
  22,                                     !- Hour 22
  0,                                      !- Minute 22
  0.2,                                    !- Value Until Time 22
  23,                                     !- Hour 23
  0,                                      !- Minute 23
  0,                                      !- Value Until Time 23
  24,                                     !- Hour 24
  0,                                      !- Minute 24
  0;                                      !- Value Until Time 24

OS:Schedule:Year,
  {5fea9d1d-bc81-4421-a0d5-9e630ffdfcdd}, !- Handle
  Home Occupancy - 24 Hours,              !- Name
  {b78a7876-ed63-4a0e-b7df-644c93540879}, !- Schedule Type Limits Name
  12,                                     !- Month 1
  31,                                     !- Day 1
  {50d0cfdb-b3e9-4479-bd7a-85d3201f03fc}; !- Week Schedule Until Date 1

OS:Schedule:Week,
  {50d0cfdb-b3e9-4479-bd7a-85d3201f03fc}, !- Handle
  Home Occupancy - 24 Hours,              !- Name
  ,                                       !- Schedule Rendering Name
  {d8ec49e4-8f99-4ccf-9f1b-a52dcd27c968}, !- Sunday Schedule:Day Name
  {d8ec49e4-8f99-4ccf-9f1b-a52dcd27c968}, !- Monday Schedule:Day Name
  {d8ec49e4-8f99-4ccf-9f1b-a52dcd27c968}, !- Tuesday Schedule:Day Name
  {d8ec49e4-8f99-4ccf-9f1b-a52dcd27c968}, !- Wednesday Schedule:Day Name
  {d8ec49e4-8f99-4ccf-9f1b-a52dcd27c968}, !- Thursday Schedule:Day Name
  {d8ec49e4-8f99-4ccf-9f1b-a52dcd27c968}, !- Friday Schedule:Day Name
  {d8ec49e4-8f99-4ccf-9f1b-a52dcd27c968}, !- Saturday Schedule:Day Name
  {d8ec49e4-8f99-4ccf-9f1b-a52dcd27c968}, !- Holiday Schedule:Day Name
  {d8ec49e4-8f99-4ccf-9f1b-a52dcd27c968}, !- SummerDesignDay Schedule:Day Name
  {d8ec49e4-8f99-4ccf-9f1b-a52dcd27c968}, !- WinterDesignDay Schedule:Day Name
  {d8ec49e4-8f99-4ccf-9f1b-a52dcd27c968}, !- CustomDay1 Schedule:Day Name
  {d8ec49e4-8f99-4ccf-9f1b-a52dcd27c968}; !- CustomDay2 Schedule:Day Name

OS:Schedule:Day,
  {d8ec49e4-8f99-4ccf-9f1b-a52dcd27c968}, !- Handle
  Home Occupancy - 24 Hours,              !- Name
  {b78a7876-ed63-4a0e-b7df-644c93540879}, !- Schedule Type Limits Name
  ,                                       !- Interpolate to Timestep
  1,                                      !- Hour 1
  0,                                      !- Minute 1
  0.9,                                    !- Value Until Time 1
  2,                                      !- Hour 2
  0,                                      !- Minute 2
  0.9,                                    !- Value Until Time 2
  3,                                      !- Hour 3
  0,                                      !- Minute 3
  0.9,                                    !- Value Until Time 3
  4,                                      !- Hour 4
  0,                                      !- Minute 4
  0.9,                                    !- Value Until Time 4
  5,                                      !- Hour 5
  0,                                      !- Minute 5
  0.9,                                    !- Value Until Time 5
  6,                                      !- Hour 6
  0,                                      !- Minute 6
  0.9,                                    !- Value Until Time 6
  7,                                      !- Hour 7
  0,                                      !- Minute 7
  0.7,                                    !- Value Until Time 7
  8,                                      !- Hour 8
  0,                                      !- Minute 8
  0.4,                                    !- Value Until Time 8
  9,                                      !- Hour 9
  0,                                      !- Minute 9
  0.4,                                    !- Value Until Time 9
  10,                                     !- Hour 10
  0,                                      !- Minute 10
  0.2,                                    !- Value Until Time 10
  11,                                     !- Hour 11
  0,                                      !- Minute 11
  0.2,                                    !- Value Until Time 11
  12,                                     !- Hour 12
  0,                                      !- Minute 12
  0.2,                                    !- Value Until Time 12
  13,                                     !- Hour 13
  0,                                      !- Minute 13
  0.2,                                    !- Value Until Time 13
  14,                                     !- Hour 14
  0,                                      !- Minute 14
  0.2,                                    !- Value Until Time 14
  15,                                     !- Hour 15
  0,                                      !- Minute 15
  0.2,                                    !- Value Until Time 15
  16,                                     !- Hour 16
  0,                                      !- Minute 16
  0.3,                                    !- Value Until Time 16
  17,                                     !- Hour 17
  0,                                      !- Minute 17
  0.5,                                    !- Value Until Time 17
  18,                                     !- Hour 18
  0,                                      !- Minute 18
  0.5,                                    !- Value Until Time 18
  19,                                     !- Hour 19
  0,                                      !- Minute 19
  0.5,                                    !- Value Until Time 19
  20,                                     !- Hour 20
  0,                                      !- Minute 20
  0.7,                                    !- Value Until Time 20
  21,                                     !- Hour 21
  0,                                      !- Minute 21
  0.7,                                    !- Value Until Time 21
  22,                                     !- Hour 22
  0,                                      !- Minute 22
  0.8,                                    !- Value Until Time 22
  23,                                     !- Hour 23
  0,                                      !- Minute 23
  0.9,                                    !- Value Until Time 23
  24,                                     !- Hour 24
  0,                                      !- Minute 24
  0.9;                                    !- Value Until Time 24

OS:ThermalZone,
  {70e43a3a-fdcb-45a2-b585-d25fc7a7ba01}, !- Handle
  Zone Default,                           !- Name
  ,                                       !- Multiplier
  ,                                       !- Ceiling Height {m}
  ,                                       !- Volume {m3}
  ,                                       !- Floor Area {m2}
  ,                                       !- Zone Inside Convection Algorithm
  ,                                       !- Zone Outside Convection Algorithm
  ,                                       !- Zone Conditioning Equipment List Name
  {831dbb8d-bc86-4400-9bd7-ca15213ac34a}, !- Zone Air Inlet Port List
  {d373dd2f-8492-4452-9a91-945a64a9fb50}, !- Zone Air Exhaust Port List
  {9cae29d5-05cb-45a0-98a4-86c7bdfce1de}, !- Zone Air Node Name
  ,                                       !- Zone Return Air Node Name
  ,                                       !- Primary Daylighting Control Name
  ,                                       !- Fraction of Zone Controlled by Primary Daylighting Control
  ,                                       !- Secondary Daylighting Control Name
  ,                                       !- Fraction of Zone Controlled by Secondary Daylighting Control
  ,                                       !- Illuminance Map Name
  {e64a1a45-4ce6-4146-8cc9-8c58e90e806d}, !- Group Rendering Name
  ,                                       !- Thermostat Name
  No;                                     !- Use Ideal Air Loads

OS:Node,
  {5f70a791-08ed-4207-ad74-18264bc22444}, !- Handle
  {01a2f9a4-e287-4de3-b922-e3fdf9a355d9}, !- Name
  {9cae29d5-05cb-45a0-98a4-86c7bdfce1de}, !- Inlet Port
  ;                                       !- Outlet Port

OS:Connection,
  {9cae29d5-05cb-45a0-98a4-86c7bdfce1de}, !- Handle
  {896bbfdc-1415-4554-b620-c7e738559827}, !- Name
  {70e43a3a-fdcb-45a2-b585-d25fc7a7ba01}, !- Source Object
  11,                                     !- Outlet Port
  {5f70a791-08ed-4207-ad74-18264bc22444}, !- Target Object
  2;                                      !- Inlet Port

OS:PortList,
  {831dbb8d-bc86-4400-9bd7-ca15213ac34a}, !- Handle
  {b6a6039b-5084-4b22-956d-77b20663d004}, !- Name
  {70e43a3a-fdcb-45a2-b585-d25fc7a7ba01}; !- HVAC Component

OS:PortList,
  {d373dd2f-8492-4452-9a91-945a64a9fb50}, !- Handle
  {8ed3babb-aa56-4118-9c10-19fa946514ae}, !- Name
  {70e43a3a-fdcb-45a2-b585-d25fc7a7ba01}; !- HVAC Component

OS:Sizing:Zone,
  {4ccd2543-607a-475d-a377-bea3dbb8f7ba}, !- Handle
  {70e43a3a-fdcb-45a2-b585-d25fc7a7ba01}, !- Zone or ZoneList Name
  SupplyAirTemperature,                   !- Zone Cooling Design Supply Air Temperature Input Method
  14,                                     !- Zone Cooling Design Supply Air Temperature {C}
  11.11,                                  !- Zone Cooling Design Supply Air Temperature Difference {deltaC}
  SupplyAirTemperature,                   !- Zone Heating Design Supply Air Temperature Input Method
  40,                                     !- Zone Heating Design Supply Air Temperature {C}
  11.11,                                  !- Zone Heating Design Supply Air Temperature Difference {deltaC}
  0.0085,                                 !- Zone Cooling Design Supply Air Humidity Ratio {kg-H2O/kg-air}
  0.008,                                  !- Zone Heating Design Supply Air Humidity Ratio {kg-H2O/kg-air}
  ,                                       !- Zone Heating Sizing Factor
  ,                                       !- Zone Cooling Sizing Factor
  DesignDay,                              !- Cooling Design Air Flow Method
  ,                                       !- Cooling Design Air Flow Rate {m3/s}
  ,                                       !- Cooling Minimum Air Flow per Zone Floor Area {m3/s-m2}
  ,                                       !- Cooling Minimum Air Flow {m3/s}
  ,                                       !- Cooling Minimum Air Flow Fraction
  DesignDay,                              !- Heating Design Air Flow Method
  ,                                       !- Heating Design Air Flow Rate {m3/s}
  ,                                       !- Heating Maximum Air Flow per Zone Floor Area {m3/s-m2}
  ,                                       !- Heating Maximum Air Flow {m3/s}
  ,                                       !- Heating Maximum Air Flow Fraction
  ,                                       !- Design Zone Air Distribution Effectiveness in Cooling Mode
  ,                                       !- Design Zone Air Distribution Effectiveness in Heating Mode
  No,                                     !- Account for Dedicated Outdoor Air System
  NeutralSupplyAir,                       !- Dedicated Outdoor Air System Control Strategy
  autosize,                               !- Dedicated Outdoor Air Low Setpoint Temperature for Design {C}
  autosize;                               !- Dedicated Outdoor Air High Setpoint Temperature for Design {C}

OS:ZoneHVAC:EquipmentList,
  {d35592ef-5fa1-4a6b-92d9-3e60824717a8}, !- Handle
  {2e67a49b-d216-4c9d-9ebd-d29bcaca85ac}, !- Name
  {70e43a3a-fdcb-45a2-b585-d25fc7a7ba01}; !- Thermal Zone

OS:ThermalZone,
  {569a6dac-de03-4c63-9b69-3a2b53954455}, !- Handle
  {60488dc4-6ab7-4eab-95e7-9ee9bb57e2e2}, !- Name
  ,                                       !- Multiplier
  ,                                       !- Ceiling Height {m}
  ,                                       !- Volume {m3}
  ,                                       !- Floor Area {m2}
  ,                                       !- Zone Inside Convection Algorithm
  ,                                       !- Zone Outside Convection Algorithm
  ,                                       !- Zone Conditioning Equipment List Name
  {35aa869a-b843-440e-96c5-208968c63d9c}, !- Zone Air Inlet Port List
  {2a31127e-3c15-4a40-8ae1-00deb7aba397}, !- Zone Air Exhaust Port List
  {0eaac394-303f-4f8c-a661-d4ea4c967269}, !- Zone Air Node Name
  ,                                       !- Zone Return Air Node Name
  ,                                       !- Primary Daylighting Control Name
  ,                                       !- Fraction of Zone Controlled by Primary Daylighting Control
  ,                                       !- Secondary Daylighting Control Name
  ,                                       !- Fraction of Zone Controlled by Secondary Daylighting Control
  ,                                       !- Illuminance Map Name
  {b1aa3cf6-1d82-4068-b77e-e5f2aca4610f}, !- Group Rendering Name
  ,                                       !- Thermostat Name
  No;                                     !- Use Ideal Air Loads

OS:Node,
  {1c402555-61b9-409a-8f66-81b17c5e0b45}, !- Handle
  {406d8a75-15bd-4652-ac2e-efc08d746998}, !- Name
  {0eaac394-303f-4f8c-a661-d4ea4c967269}, !- Inlet Port
  ;                                       !- Outlet Port

OS:Connection,
  {0eaac394-303f-4f8c-a661-d4ea4c967269}, !- Handle
  {9f7b6b80-0f89-43f9-bb3f-e27e547b428a}, !- Name
  {569a6dac-de03-4c63-9b69-3a2b53954455}, !- Source Object
  11,                                     !- Outlet Port
  {1c402555-61b9-409a-8f66-81b17c5e0b45}, !- Target Object
  2;                                      !- Inlet Port

OS:PortList,
  {35aa869a-b843-440e-96c5-208968c63d9c}, !- Handle
  {551da6be-62d7-4ce3-b61a-ca85115e2df9}, !- Name
  {569a6dac-de03-4c63-9b69-3a2b53954455}; !- HVAC Component

OS:PortList,
  {2a31127e-3c15-4a40-8ae1-00deb7aba397}, !- Handle
  {e99534d0-f343-42e3-b1ef-1bb284e3604a}, !- Name
  {569a6dac-de03-4c63-9b69-3a2b53954455}; !- HVAC Component

OS:Sizing:Zone,
  {d29008b8-d9c0-4000-b426-ed097d63657d}, !- Handle
  {569a6dac-de03-4c63-9b69-3a2b53954455}, !- Zone or ZoneList Name
  SupplyAirTemperature,                   !- Zone Cooling Design Supply Air Temperature Input Method
  14,                                     !- Zone Cooling Design Supply Air Temperature {C}
  11.11,                                  !- Zone Cooling Design Supply Air Temperature Difference {deltaC}
  SupplyAirTemperature,                   !- Zone Heating Design Supply Air Temperature Input Method
  40,                                     !- Zone Heating Design Supply Air Temperature {C}
  11.11,                                  !- Zone Heating Design Supply Air Temperature Difference {deltaC}
  0.0085,                                 !- Zone Cooling Design Supply Air Humidity Ratio {kg-H2O/kg-air}
  0.008,                                  !- Zone Heating Design Supply Air Humidity Ratio {kg-H2O/kg-air}
  ,                                       !- Zone Heating Sizing Factor
  ,                                       !- Zone Cooling Sizing Factor
  DesignDay,                              !- Cooling Design Air Flow Method
  ,                                       !- Cooling Design Air Flow Rate {m3/s}
  ,                                       !- Cooling Minimum Air Flow per Zone Floor Area {m3/s-m2}
  ,                                       !- Cooling Minimum Air Flow {m3/s}
  ,                                       !- Cooling Minimum Air Flow Fraction
  DesignDay,                              !- Heating Design Air Flow Method
  ,                                       !- Heating Design Air Flow Rate {m3/s}
  ,                                       !- Heating Maximum Air Flow per Zone Floor Area {m3/s-m2}
  ,                                       !- Heating Maximum Air Flow {m3/s}
  ,                                       !- Heating Maximum Air Flow Fraction
  ,                                       !- Design Zone Air Distribution Effectiveness in Cooling Mode
  ,                                       !- Design Zone Air Distribution Effectiveness in Heating Mode
  No,                                     !- Account for Dedicated Outdoor Air System
  NeutralSupplyAir,                       !- Dedicated Outdoor Air System Control Strategy
  autosize,                               !- Dedicated Outdoor Air Low Setpoint Temperature for Design {C}
  autosize;                               !- Dedicated Outdoor Air High Setpoint Temperature for Design {C}

OS:ZoneHVAC:EquipmentList,
  {865914f5-209c-4f49-af8e-4ad8d6818061}, !- Handle
  {a9be6967-1067-4dbd-821b-08278af62f7d}, !- Name
  {569a6dac-de03-4c63-9b69-3a2b53954455}; !- Thermal Zone

OS:ThermalZone,
  {fec49744-ce3e-441a-a518-499a90f75e07}, !- Handle
  {ab0cc43c-d88c-46d5-8f14-21a73132c08b}, !- Name
  ,                                       !- Multiplier
  ,                                       !- Ceiling Height {m}
  ,                                       !- Volume {m3}
  ,                                       !- Floor Area {m2}
  ,                                       !- Zone Inside Convection Algorithm
  ,                                       !- Zone Outside Convection Algorithm
  ,                                       !- Zone Conditioning Equipment List Name
  {069da4e6-95af-4167-ad6c-0a3ed1233de2}, !- Zone Air Inlet Port List
  {0986ba8c-2b92-47a8-8bdc-067fa1ff369f}, !- Zone Air Exhaust Port List
  {abd3bc9d-a1d9-46c2-8126-4f0fb7aeca78}, !- Zone Air Node Name
  ,                                       !- Zone Return Air Node Name
  ,                                       !- Primary Daylighting Control Name
  ,                                       !- Fraction of Zone Controlled by Primary Daylighting Control
  ,                                       !- Secondary Daylighting Control Name
  ,                                       !- Fraction of Zone Controlled by Secondary Daylighting Control
  ,                                       !- Illuminance Map Name
  {9a880572-413e-4ff5-95e2-53e435587e28}, !- Group Rendering Name
  ,                                       !- Thermostat Name
  No;                                     !- Use Ideal Air Loads

OS:Node,
  {683853af-067a-41ee-93a0-c30c221abc69}, !- Handle
  {09b09a27-ebdf-4e7f-b444-db2d4bd65e40}, !- Name
  {abd3bc9d-a1d9-46c2-8126-4f0fb7aeca78}, !- Inlet Port
  ;                                       !- Outlet Port

OS:Connection,
  {abd3bc9d-a1d9-46c2-8126-4f0fb7aeca78}, !- Handle
  {867f4cf5-5580-4359-be4c-1a9576f85d1b}, !- Name
  {fec49744-ce3e-441a-a518-499a90f75e07}, !- Source Object
  11,                                     !- Outlet Port
  {683853af-067a-41ee-93a0-c30c221abc69}, !- Target Object
  2;                                      !- Inlet Port

OS:PortList,
  {069da4e6-95af-4167-ad6c-0a3ed1233de2}, !- Handle
  {248838f7-b08e-43bd-87a4-55645c81361c}, !- Name
  {fec49744-ce3e-441a-a518-499a90f75e07}; !- HVAC Component

OS:PortList,
  {0986ba8c-2b92-47a8-8bdc-067fa1ff369f}, !- Handle
  {bda18d6b-b571-44fe-ad76-ea6a71b9b1fd}, !- Name
  {fec49744-ce3e-441a-a518-499a90f75e07}; !- HVAC Component

OS:Sizing:Zone,
  {cbebd030-18e1-49c2-930f-5bd358a49d53}, !- Handle
  {fec49744-ce3e-441a-a518-499a90f75e07}, !- Zone or ZoneList Name
  SupplyAirTemperature,                   !- Zone Cooling Design Supply Air Temperature Input Method
  14,                                     !- Zone Cooling Design Supply Air Temperature {C}
  11.11,                                  !- Zone Cooling Design Supply Air Temperature Difference {deltaC}
  SupplyAirTemperature,                   !- Zone Heating Design Supply Air Temperature Input Method
  40,                                     !- Zone Heating Design Supply Air Temperature {C}
  11.11,                                  !- Zone Heating Design Supply Air Temperature Difference {deltaC}
  0.0085,                                 !- Zone Cooling Design Supply Air Humidity Ratio {kg-H2O/kg-air}
  0.008,                                  !- Zone Heating Design Supply Air Humidity Ratio {kg-H2O/kg-air}
  ,                                       !- Zone Heating Sizing Factor
  ,                                       !- Zone Cooling Sizing Factor
  DesignDay,                              !- Cooling Design Air Flow Method
  ,                                       !- Cooling Design Air Flow Rate {m3/s}
  ,                                       !- Cooling Minimum Air Flow per Zone Floor Area {m3/s-m2}
  ,                                       !- Cooling Minimum Air Flow {m3/s}
  ,                                       !- Cooling Minimum Air Flow Fraction
  DesignDay,                              !- Heating Design Air Flow Method
  ,                                       !- Heating Design Air Flow Rate {m3/s}
  ,                                       !- Heating Maximum Air Flow per Zone Floor Area {m3/s-m2}
  ,                                       !- Heating Maximum Air Flow {m3/s}
  ,                                       !- Heating Maximum Air Flow Fraction
  ,                                       !- Design Zone Air Distribution Effectiveness in Cooling Mode
  ,                                       !- Design Zone Air Distribution Effectiveness in Heating Mode
  No,                                     !- Account for Dedicated Outdoor Air System
  NeutralSupplyAir,                       !- Dedicated Outdoor Air System Control Strategy
  autosize,                               !- Dedicated Outdoor Air Low Setpoint Temperature for Design {C}
  autosize;                               !- Dedicated Outdoor Air High Setpoint Temperature for Design {C}

OS:ZoneHVAC:EquipmentList,
  {018879a6-304b-45f7-bcb5-595382aa7233}, !- Handle
  {583e048b-ccfb-4c02-8b3c-21beb819bd68}, !- Name
  {fec49744-ce3e-441a-a518-499a90f75e07}; !- Thermal Zone

OS:ThermalZone,
  {753b036d-543a-4eba-b990-80445c2af3f4}, !- Handle
  {bdc70bb7-4404-4c65-8c16-2c2f3475f025}, !- Name
  ,                                       !- Multiplier
  ,                                       !- Ceiling Height {m}
  ,                                       !- Volume {m3}
  ,                                       !- Floor Area {m2}
  ,                                       !- Zone Inside Convection Algorithm
  ,                                       !- Zone Outside Convection Algorithm
  ,                                       !- Zone Conditioning Equipment List Name
  {cc74126b-75d5-45b2-a231-2b00b785670e}, !- Zone Air Inlet Port List
  {a37107be-25e6-4489-abbe-06e4e2b55938}, !- Zone Air Exhaust Port List
  {0ba12b82-819d-4c23-ab04-06c7da83b97e}, !- Zone Air Node Name
  ,                                       !- Zone Return Air Node Name
  ,                                       !- Primary Daylighting Control Name
  ,                                       !- Fraction of Zone Controlled by Primary Daylighting Control
  ,                                       !- Secondary Daylighting Control Name
  ,                                       !- Fraction of Zone Controlled by Secondary Daylighting Control
  ,                                       !- Illuminance Map Name
  {f2aa2473-521d-4376-b7ac-0125ea8f7eb1}, !- Group Rendering Name
  ,                                       !- Thermostat Name
  No;                                     !- Use Ideal Air Loads

OS:Node,
  {2cef6130-fd53-4adb-b8db-6388c52f69d6}, !- Handle
  {190b79bb-74a7-4ee3-babf-b034eea7e630}, !- Name
  {0ba12b82-819d-4c23-ab04-06c7da83b97e}, !- Inlet Port
  ;                                       !- Outlet Port

OS:Connection,
  {0ba12b82-819d-4c23-ab04-06c7da83b97e}, !- Handle
  {c809d2f4-ada9-403c-9e39-3c2a8ae7e15f}, !- Name
  {753b036d-543a-4eba-b990-80445c2af3f4}, !- Source Object
  11,                                     !- Outlet Port
  {2cef6130-fd53-4adb-b8db-6388c52f69d6}, !- Target Object
  2;                                      !- Inlet Port

OS:PortList,
  {cc74126b-75d5-45b2-a231-2b00b785670e}, !- Handle
  {6a1756ab-6286-413e-81c6-ced563f0a30e}, !- Name