
OS:Version,
  {97a17a22-8274-4a13-bf88-f3e672c3c731}, !- Handle
  2.6.0;                                  !- Version Identifier

OS:Facility,
  {035c7786-fbbe-48da-a153-60e5d517851b}; !- Handle

OS:Building,
  {2c439901-ef34-4fc3-abde-b1a60fecad46}, !- Handle
  bldg-1,                                 !- Name
  ,                                       !- Building Sector Type
  ,                                       !- North Axis {deg}
  ,                                       !- Nominal Floor to Floor Height {m}
  ,                                       !- Space Type Name
  ,                                       !- Default Construction Set Name
  ,                                       !- Default Schedule Set Name
  ,                                       !- Standards Number of Stories
  ,                                       !- Standards Number of Above Ground Stories
  ,                                       !- Standards Building Type
  ,                                       !- Standards Number of Living Units
  ,                                       !- Relocatable
  ;                                       !- Nominal Floor to Ceiling Height {m}

OS:BuildingStory,
  {59fd3514-ebaf-47db-8ba8-ef8310ffcff8}, !- Handle
  1st Floor,                              !- Name
  ,                                       !- Nominal Z Coordinate {m}
  ,                                       !- Nominal Floor to Floor Height {m}
  ,                                       !- Default Construction Set Name
  ,                                       !- Default Schedule Set Name
  {de3932ee-f98c-4c85-ade7-6f4ceccec7d3}; !- Group Rendering Name

OS:BuildingStory,
  {f61609df-dd1f-4193-9f55-0ab1595c4bfa}, !- Handle
  Ground Floor,                           !- Name
  ,                                       !- Nominal Z Coordinate {m}
  ,                                       !- Nominal Floor to Floor Height {m}
  ,                                       !- Default Construction Set Name
  ,                                       !- Default Schedule Set Name
  {184b86e3-237a-4226-8ca5-06b170dbfa30}; !- Group Rendering Name

OS:BuildingStory,
  {1c710da0-21bb-478f-99d7-bb72f84953c6}, !- Handle
  2nd Floor,                              !- Name
  ,                                       !- Nominal Z Coordinate {m}
  ,                                       !- Nominal Floor to Floor Height {m}
  ,                                       !- Default Construction Set Name
  ,                                       !- Default Schedule Set Name
  {1a7532d2-c69f-46e7-a37b-d8f5d9fce87a}; !- Group Rendering Name

OS:BuildingStory,
  {9d85d8d8-b54c-476f-8763-0472b80fbb8f}, !- Handle
  Basement,                               !- Name
  ,                                       !- Nominal Z Coordinate {m}
  ,                                       !- Nominal Floor to Floor Height {m}
  ,                                       !- Default Construction Set Name
  ,                                       !- Default Schedule Set Name
  {323d5faf-58b5-4f8f-b525-c10c321c125a}; !- Group Rendering Name

OS:BuildingStory,
  {71621a3b-d7f4-44c5-8298-b62f7a89be61}, !- Handle
  Top of Roof,                            !- Name
  ,                                       !- Nominal Z Coordinate {m}
  ,                                       !- Nominal Floor to Floor Height {m}
  ,                                       !- Default Construction Set Name
  ,                                       !- Default Schedule Set Name
  {3e473fe2-ce52-4734-aaf0-e24e98ca00a2}; !- Group Rendering Name

OS:BuildingStory,
  {16e3f01f-fcb6-4684-83a1-8f64ab4fe8f4}, !- Handle
  Basement Ceiling,                       !- Name
  ,                                       !- Nominal Z Coordinate {m}
  ,                                       !- Nominal Floor to Floor Height {m}
  ,                                       !- Default Construction Set Name
  ,                                       !- Default Schedule Set Name
  {b2f48418-0464-4940-bba0-2a493f9582d3}; !- Group Rendering Name

OS:Space,
  {a9c3f75e-9d07-464a-ab08-f8a7cdf57aec}, !- Handle
  9 1st Floor Living Room,                !- Name
  ,                                       !- Space Type Name
  ,                                       !- Default Construction Set Name
  ,                                       !- Default Schedule Set Name
  ,                                       !- Direction of Relative North {deg}
  ,                                       !- X Origin {m}
  ,                                       !- Y Origin {m}
  ,                                       !- Z Origin {m}
  {59fd3514-ebaf-47db-8ba8-ef8310ffcff8}, !- Building Story Name
  {b2f6a676-232a-4b0c-bb3b-aefa17de37d3}; !- Thermal Zone Name

OS:ThermalZone,
  {b2f6a676-232a-4b0c-bb3b-aefa17de37d3}, !- Handle
  9 1st Floor Living Room ThermalZone,    !- Name
  ,                                       !- Multiplier
  ,                                       !- Ceiling Height {m}
  ,                                       !- Volume {m3}
  ,                                       !- Floor Area {m2}
  ,                                       !- Zone Inside Convection Algorithm
  ,                                       !- Zone Outside Convection Algorithm
  ,                                       !- Zone Conditioning Equipment List Name
  {dd2cecad-50a0-4ab4-b5ce-ffb4777dec04}, !- Zone Air Inlet Port List
  {e737250f-b8a7-419e-bc2b-0880359b3e2c}, !- Zone Air Exhaust Port List
  {a333e0bb-a334-4b2d-b7b2-ce76ea78d25e}, !- Zone Air Node Name
  ,                                       !- Zone Return Air Node Name
  ,                                       !- Primary Daylighting Control Name
  ,                                       !- Fraction of Zone Controlled by Primary Daylighting Control
  ,                                       !- Secondary Daylighting Control Name
  ,                                       !- Fraction of Zone Controlled by Secondary Daylighting Control
  ,                                       !- Illuminance Map Name
  {fdafdd6e-5602-40e0-a302-3b26b7d694ad}, !- Group Rendering Name
  ,                                       !- Thermostat Name
  No;                                     !- Use Ideal Air Loads

OS:Node,
  {4cff6cd0-22e7-43a2-ac2e-f4a511c566d6}, !- Handle
  {1aeb7aca-bb7d-4f17-b1b4-7905fe758af2}, !- Name
  {a333e0bb-a334-4b2d-b7b2-ce76ea78d25e}, !- Inlet Port
  ;                                       !- Outlet Port

OS:Connection,
  {a333e0bb-a334-4b2d-b7b2-ce76ea78d25e}, !- Handle
  {a10c41db-008e-4134-9868-c2ea93e01adf}, !- Name
  {b2f6a676-232a-4b0c-bb3b-aefa17de37d3}, !- Source Object
  11,                                     !- Outlet Port
  {4cff6cd0-22e7-43a2-ac2e-f4a511c566d6}, !- Target Object
  2;                                      !- Inlet Port

OS:PortList,
  {dd2cecad-50a0-4ab4-b5ce-ffb4777dec04}, !- Handle
  {790114aa-c01a-441b-8209-86c5b8db0205}, !- Name
  {b2f6a676-232a-4b0c-bb3b-aefa17de37d3}; !- HVAC Component

OS:PortList,
  {e737250f-b8a7-419e-bc2b-0880359b3e2c}, !- Handle
  {afecff43-810e-4166-8e51-9535a479398a}, !- Name
  {b2f6a676-232a-4b0c-bb3b-aefa17de37d3}; !- HVAC Component

OS:Sizing:Zone,
  {15dbd79e-fa12-42c8-9761-8be29c37fbbc}, !- Handle
  {b2f6a676-232a-4b0c-bb3b-aefa17de37d3}, !- Zone or ZoneList Name
  SupplyAirTemperature,                   !- Zone Cooling Design Supply Air Temperature Input Method
  14,                                     !- Zone Cooling Design Supply Air Temperature {C}
  11.11,                                  !- Zone Cooling Design Supply Air Temperature Difference {deltaC}
  SupplyAirTemperature,                   !- Zone Heating Design Supply Air Temperature Input Method
  40,                                     !- Zone Heating Design Supply Air Temperature {C}
  11.11,                                  !- Zone Heating Design Supply Air Temperature Difference {deltaC}
  0.0085,                                 !- Zone Cooling Design Supply Air Humidity Ratio {kg-H2O/kg-air}
  0.008,                                  !- Zone Heating Design Supply Air Humidity Ratio {kg-H2O/kg-air}
  ,                                       !- Zone Heating Sizing Factor
  ,                                       !- Zone Cooling Sizing Factor
  DesignDay,                              !- Cooling Design Air Flow Method
  ,                                       !- Cooling Design Air Flow Rate {m3/s}
  ,                                       !- Cooling Minimum Air Flow per Zone Floor Area {m3/s-m2}
  ,                                       !- Cooling Minimum Air Flow {m3/s}
  ,                                       !- Cooling Minimum Air Flow Fraction
  DesignDay,                              !- Heating Design Air Flow Method
  ,                                       !- Heating Design Air Flow Rate {m3/s}
  ,                                       !- Heating Maximum Air Flow per Zone Floor Area {m3/s-m2}
  ,                                       !- Heating Maximum Air Flow {m3/s}
  ,                                       !- Heating Maximum Air Flow Fraction
  ,                                       !- Design Zone Air Distribution Effectiveness in Cooling Mode
  ,                                       !- Design Zone Air Distribution Effectiveness in Heating Mode
  No,                                     !- Account for Dedicated Outdoor Air System
  NeutralSupplyAir,                       !- Dedicated Outdoor Air System Control Strategy
  autosize,                               !- Dedicated Outdoor Air Low Setpoint Temperature for Design {C}
  autosize;                               !- Dedicated Outdoor Air High Setpoint Temperature for Design {C}

OS:ZoneHVAC:EquipmentList,
  {9b98aad0-1083-4395-829e-9838f85db4bb}, !- Handle
  {422096f7-cb25-431b-88f8-9cf3abc845a2}, !- Name
  {b2f6a676-232a-4b0c-bb3b-aefa17de37d3}; !- Thermal Zone

OS:Space,
  {abdbd0a5-7ac0-43ae-a9b3-d4f42a6a8688}, !- Handle
  11 Kitchen,                             !- Name
  ,                                       !- Space Type Name
  ,                                       !- Default Construction Set Name
  ,                                       !- Default Schedule Set Name
  ,                                       !- Direction of Relative North {deg}
  ,                                       !- X Origin {m}
  ,                                       !- Y Origin {m}
  ,                                       !- Z Origin {m}
  {59fd3514-ebaf-47db-8ba8-ef8310ffcff8}, !- Building Story Name
  {9179bd6e-23b0-424c-aa3f-201707c30037}; !- Thermal Zone Name

OS:ThermalZone,
  {9179bd6e-23b0-424c-aa3f-201707c30037}, !- Handle
  11 Kitchen ThermalZone,                 !- Name
  ,                                       !- Multiplier
  ,                                       !- Ceiling Height {m}
  ,                                       !- Volume {m3}
  ,                                       !- Floor Area {m2}
  ,                                       !- Zone Inside Convection Algorithm
  ,                                       !- Zone Outside Convection Algorithm
  ,                                       !- Zone Conditioning Equipment List Name
  {57e57353-11b5-4cd4-9f80-ac8e369661e7}, !- Zone Air Inlet Port List
  {38039dfa-d55e-48d9-8b32-e7dfba9d796b}, !- Zone Air Exhaust Port List
  {96a99f1c-1037-4a9a-be85-940318433e90}, !- Zone Air Node Name
  ,                                       !- Zone Return Air Node Name
  ,                                       !- Primary Daylighting Control Name
  ,                                       !- Fraction of Zone Controlled by Primary Daylighting Control
  ,                                       !- Secondary Daylighting Control Name
  ,                                       !- Fraction of Zone Controlled by Secondary Daylighting Control
  ,                                       !- Illuminance Map Name
  {5c279557-c8a0-4341-ab7b-9b3488b68b4f}, !- Group Rendering Name
  ,                                       !- Thermostat Name
  No;                                     !- Use Ideal Air Loads

OS:Node,
  {c6809f4d-b2f9-4ff3-b4b0-88dab03c59bb}, !- Handle
  {bf4967c2-d45b-41e9-a4aa-2223c9592e34}, !- Name
  {96a99f1c-1037-4a9a-be85-940318433e90}, !- Inlet Port
  ;                                       !- Outlet Port

OS:Connection,
  {96a99f1c-1037-4a9a-be85-940318433e90}, !- Handle
  {71b13e74-0d51-409a-8e03-9acf7525b365}, !- Name
  {9179bd6e-23b0-424c-aa3f-201707c30037}, !- Source Object
  11,                                     !- Outlet Port
  {c6809f4d-b2f9-4ff3-b4b0-88dab03c59bb}, !- Target Object
  2;                                      !- Inlet Port

OS:PortList,
  {57e57353-11b5-4cd4-9f80-ac8e369661e7}, !- Handle
  {efbee7d3-c341-4b80-b562-476264a0e184}, !- Name
  {9179bd6e-23b0-424c-aa3f-201707c30037}; !- HVAC Component

OS:PortList,
  {38039dfa-d55e-48d9-8b32-e7dfba9d796b}, !- Handle
  {fa935ce1-7490-4c8a-b9a2-40d783f13782}, !- Name
  {9179bd6e-23b0-424c-aa3f-201707c30037}; !- HVAC Component

OS:Sizing:Zone,
  {cd11053b-2fce-40f4-87ce-fc6951c94d5e}, !- Handle
  {9179bd6e-23b0-424c-aa3f-201707c30037}, !- Zone or ZoneList Name
  SupplyAirTemperature,                   !- Zone Cooling Design Supply Air Temperature Input Method
  14,                                     !- Zone Cooling Design Supply Air Temperature {C}
  11.11,                                  !- Zone Cooling Design Supply Air Temperature Difference {deltaC}
  SupplyAirTemperature,                   !- Zone Heating Design Supply Air Temperature Input Method
  40,                                     !- Zone Heating Design Supply Air Temperature {C}
  11.11,                                  !- Zone Heating Design Supply Air Temperature Difference {deltaC}
  0.0085,                                 !- Zone Cooling Design Supply Air Humidity Ratio {kg-H2O/kg-air}
  0.008,                                  !- Zone Heating Design Supply Air Humidity Ratio {kg-H2O/kg-air}
  ,                                       !- Zone Heating Sizing Factor
  ,                                       !- Zone Cooling Sizing Factor
  DesignDay,                              !- Cooling Design Air Flow Method
  ,                                       !- Cooling Design Air Flow Rate {m3/s}
  ,                                       !- Cooling Minimum Air Flow per Zone Floor Area {m3/s-m2}
  ,                                       !- Cooling Minimum Air Flow {m3/s}
  ,                                       !- Cooling Minimum Air Flow Fraction
  DesignDay,                              !- Heating Design Air Flow Method
  ,                                       !- Heating Design Air Flow Rate {m3/s}
  ,                                       !- Heating Maximum Air Flow per Zone Floor Area {m3/s-m2}
  ,                                       !- Heating Maximum Air Flow {m3/s}
  ,                                       !- Heating Maximum Air Flow Fraction
  ,                                       !- Design Zone Air Distribution Effectiveness in Cooling Mode
  ,                                       !- Design Zone Air Distribution Effectiveness in Heating Mode
  No,                                     !- Account for Dedicated Outdoor Air System
  NeutralSupplyAir,                       !- Dedicated Outdoor Air System Control Strategy
  autosize,                               !- Dedicated Outdoor Air Low Setpoint Temperature for Design {C}
  autosize;                               !- Dedicated Outdoor Air High Setpoint Temperature for Design {C}

OS:ZoneHVAC:EquipmentList,
  {d430d52a-6313-490d-84d0-af44f3e81666}, !- Handle
  {a0fe5059-c568-4071-a0b6-9e5e9f902d0d}, !- Name
  {9179bd6e-23b0-424c-aa3f-201707c30037}; !- Thermal Zone

OS:Space,
  {b82dfcd5-8f0b-4070-a212-39e173692db3}, !- Handle
  12 Hallway,                             !- Name
  ,                                       !- Space Type Name
  ,                                       !- Default Construction Set Name
  ,                                       !- Default Schedule Set Name
  ,                                       !- Direction of Relative North {deg}
  ,                                       !- X Origin {m}
  ,                                       !- Y Origin {m}
  ,                                       !- Z Origin {m}
  {59fd3514-ebaf-47db-8ba8-ef8310ffcff8}, !- Building Story Name
  {f0d47e59-03f4-4b2e-ad01-9e12d0431115}; !- Thermal Zone Name

OS:ThermalZone,
  {f0d47e59-03f4-4b2e-ad01-9e12d0431115}, !- Handle
  12 Hallway ThermalZone,                 !- Name
  ,                                       !- Multiplier
  ,                                       !- Ceiling Height {m}
  ,                                       !- Volume {m3}
  ,                                       !- Floor Area {m2}
  ,                                       !- Zone Inside Convection Algorithm
  ,                                       !- Zone Outside Convection Algorithm
  ,                                       !- Zone Conditioning Equipment List Name
  {7e2a259c-f907-4b05-9e9d-3d2f665941dd}, !- Zone Air Inlet Port List
  {df6c6b8f-6c0a-4c17-ad58-f555157d6fe8}, !- Zone Air Exhaust Port List
  {f8cc5709-3314-4d71-94a4-b1491854b588}, !- Zone Air Node Name
  ,                                       !- Zone Return Air Node Name
  ,                                       !- Primary Daylighting Control Name
  ,                                       !- Fraction of Zone Controlled by Primary Daylighting Control
  ,                                       !- Secondary Daylighting Control Name
  ,                                       !- Fraction of Zone Controlled by Secondary Daylighting Control
  ,                                       !- Illuminance Map Name
  {4053d695-a5a2-4003-b001-094fdb2e81b9}, !- Group Rendering Name
  ,                                       !- Thermostat Name
  No;                                     !- Use Ideal Air Loads

OS:Node,
  {3de44a51-f826-4761-ae83-9ed99430e1af}, !- Handle
  {99c69f7c-2a61-4cee-9b41-f367f45fba17}, !- Name
  {f8cc5709-3314-4d71-94a4-b1491854b588}, !- Inlet Port
  ;                                       !- Outlet Port

OS:Connection,
  {f8cc5709-3314-4d71-94a4-b1491854b588}, !- Handle
  {539c0a74-8629-43cd-a3ec-c6db8caad067}, !- Name
  {f0d47e59-03f4-4b2e-ad01-9e12d0431115}, !- Source Object
  11,                                     !- Outlet Port
  {3de44a51-f826-4761-ae83-9ed99430e1af}, !- Target Object
  2;                                      !- Inlet Port

OS:PortList,
  {7e2a259c-f907-4b05-9e9d-3d2f665941dd}, !- Handle
  {69d43708-1975-492d-a607-be0706a76a0f}, !- Name
  {f0d47e59-03f4-4b2e-ad01-9e12d0431115}; !- HVAC Component

OS:PortList,
  {df6c6b8f-6c0a-4c17-ad58-f555157d6fe8}, !- Handle
  {8015e28f-0ff2-439e-99ab-16bec403cc3b}, !- Name
  {f0d47e59-03f4-4b2e-ad01-9e12d0431115}; !- HVAC Component

OS:Sizing:Zone,
  {58e0b9cb-6e11-4fd9-9490-388e0c72c50b}, !- Handle
  {f0d47e59-03f4-4b2e-ad01-9e12d0431115}, !- Zone or ZoneList Name
  SupplyAirTemperature,                   !- Zone Cooling Design Supply Air Temperature Input Method
  14,                                     !- Zone Cooling Design Supply Air Temperature {C}
  11.11,                                  !- Zone Cooling Design Supply Air Temperature Difference {deltaC}
  SupplyAirTemperature,                   !- Zone Heating Design Supply Air Temperature Input Method
  40,                                     !- Zone Heating Design Supply Air Temperature {C}
  11.11,                                  !- Zone Heating Design Supply Air Temperature Difference {deltaC}
  0.0085,                                 !- Zone Cooling Design Supply Air Humidity Ratio {kg-H2O/kg-air}
  0.008,                                  !- Zone Heating Design Supply Air Humidity Ratio {kg-H2O/kg-air}
  ,                                       !- Zone Heating Sizing Factor
  ,                                       !- Zone Cooling Sizing Factor
  DesignDay,                              !- Cooling Design Air Flow Method
  ,                                       !- Cooling Design Air Flow Rate {m3/s}
  ,                                       !- Cooling Minimum Air Flow per Zone Floor Area {m3/s-m2}
  ,                                       !- Cooling Minimum Air Flow {m3/s}
  ,                                       !- Cooling Minimum Air Flow Fraction
  DesignDay,                              !- Heating Design Air Flow Method
  ,                                       !- Heating Design Air Flow Rate {m3/s}
  ,                                       !- Heating Maximum Air Flow per Zone Floor Area {m3/s-m2}
  ,                                       !- Heating Maximum Air Flow {m3/s}
  ,                                       !- Heating Maximum Air Flow Fraction
  ,                                       !- Design Zone Air Distribution Effectiveness in Cooling Mode
  ,                                       !- Design Zone Air Distribution Effectiveness in Heating Mode
  No,                                     !- Account for Dedicated Outdoor Air System
  NeutralSupplyAir,                       !- Dedicated Outdoor Air System Control Strategy
  autosize,                               !- Dedicated Outdoor Air Low Setpoint Temperature for Design {C}
  autosize;                               !- Dedicated Outdoor Air High Setpoint Temperature for Design {C}

OS:ZoneHVAC:EquipmentList,
  {e2ca2c9c-4c43-4789-af07-0816219dd4c6}, !- Handle
  {f34dfc24-79f8-451e-a6bb-076de92bc5dd}, !- Name
  {f0d47e59-03f4-4b2e-ad01-9e12d0431115}; !- Thermal Zone

OS:Space,
  {ead9837f-d199-49bb-b7d0-18088611f919}, !- Handle
  14 Dining Room,                         !- Name
  ,                                       !- Space Type Name
  ,                                       !- Default Construction Set Name
  ,                                       !- Default Schedule Set Name
  ,                                       !- Direction of Relative North {deg}
  ,                                       !- X Origin {m}
  ,                                       !- Y Origin {m}
  ,                                       !- Z Origin {m}
  {59fd3514-ebaf-47db-8ba8-ef8310ffcff8}, !- Building Story Name
  {6df5df9b-eabd-414c-b942-139816fcb396}; !- Thermal Zone Name

OS:ThermalZone,
  {6df5df9b-eabd-414c-b942-139816fcb396}, !- Handle
  14 Dining Room ThermalZone,             !- Name
  ,                                       !- Multiplier
  ,                                       !- Ceiling Height {m}
  ,                                       !- Volume {m3}
  ,                                       !- Floor Area {m2}
  ,                                       !- Zone Inside Convection Algorithm
  ,                                       !- Zone Outside Convection Algorithm
  ,                                       !- Zone Conditioning Equipment List Name
  {15275a57-140a-4886-83d6-cc9ac46236a8}, !- Zone Air Inlet Port List
  {d75917e7-32db-4cb7-9687-61255af74c54}, !- Zone Air Exhaust Port List
  {bf1e626a-f9b8-49ad-bcd2-0b7c7200a698}, !- Zone Air Node Name
  ,                                       !- Zone Return Air Node Name
  ,                                       !- Primary Daylighting Control Name
  ,                                       !- Fraction of Zone Controlled by Primary Daylighting Control
  ,                                       !- Secondary Daylighting Control Name
  ,                                       !- Fraction of Zone Controlled by Secondary Daylighting Control
  ,                                       !- Illuminance Map Name
  {8f2e6e2c-4400-4f14-8d14-13d9de547b9c}, !- Group Rendering Name
  ,                                       !- Thermostat Name
  No;                                     !- Use Ideal Air Loads

OS:Node,
  {0c323ded-6a3a-42a6-a650-2c2b0addd3f2}, !- Handle
  {30883992-2c49-444d-85f2-1b0bddbe071b}, !- Name
  {bf1e626a-f9b8-49ad-bcd2-0b7c7200a698}, !- Inlet Port
  ;                                       !- Outlet Port

OS:Connection,
  {bf1e626a-f9b8-49ad-bcd2-0b7c7200a698}, !- Handle
  {e862e7e9-8033-4fe0-a697-b43eb1dc7a3c}, !- Name
  {6df5df9b-eabd-414c-b942-139816fcb396}, !- Source Object
  11,                                     !- Outlet Port
  {0c323ded-6a3a-42a6-a650-2c2b0addd3f2}, !- Target Object
  2;                                      !- Inlet Port

OS:PortList,
  {15275a57-140a-4886-83d6-cc9ac46236a8}, !- Handle
  {0944580b-534d-43d4-a93e-c6c40ae5427d}, !- Name
  {6df5df9b-eabd-414c-b942-139816fcb396}; !- HVAC Component

OS:PortList,
  {d75917e7-32db-4cb7-9687-61255af74c54}, !- Handle
  {b85de2ae-d7a3-469e-9128-a0e302a78cbe}, !- Name
  {6df5df9b-eabd-414c-b942-139816fcb396}; !- HVAC Component

OS:Sizing:Zone,
  {c329a19f-69c2-417c-acee-d34066480e6f}, !- Handle
  {6df5df9b-eabd-414c-b942-139816fcb396}, !- Zone or ZoneList Name
  SupplyAirTemperature,                   !- Zone Cooling Design Supply Air Temperature Input Method
  14,                                     !- Zone Cooling Design Supply Air Temperature {C}
  11.11,                                  !- Zone Cooling Design Supply Air Temperature Difference {deltaC}
  SupplyAirTemperature,                   !- Zone Heating Design Supply Air Temperature Input Method
  40,                                     !- Zone Heating Design Supply Air Temperature {C}
  11.11,                                  !- Zone Heating Design Supply Air Temperature Difference {deltaC}
  0.0085,                                 !- Zone Cooling Design Supply Air Humidity Ratio {kg-H2O/kg-air}
  0.008,                                  !- Zone Heating Design Supply Air Humidity Ratio {kg-H2O/kg-air}
  ,                                       !- Zone Heating Sizing Factor
  ,                                       !- Zone Cooling Sizing Factor
  DesignDay,                              !- Cooling Design Air Flow Method
  ,                                       !- Cooling Design Air Flow Rate {m3/s}
  ,                                       !- Cooling Minimum Air Flow per Zone Floor Area {m3/s-m2}
  ,                                       !- Cooling Minimum Air Flow {m3/s}
  ,                                       !- Cooling Minimum Air Flow Fraction
  DesignDay,                              !- Heating Design Air Flow Method
  ,                                       !- Heating Design Air Flow Rate {m3/s}
  ,                                       !- Heating Maximum Air Flow per Zone Floor Area {m3/s-m2}
  ,                                       !- Heating Maximum Air Flow {m3/s}
  ,                                       !- Heating Maximum Air Flow Fraction
  ,                                       !- Design Zone Air Distribution Effectiveness in Cooling Mode
  ,                                       !- Design Zone Air Distribution Effectiveness in Heating Mode
  No,                                     !- Account for Dedicated Outdoor Air System
  NeutralSupplyAir,                       !- Dedicated Outdoor Air System Control Strategy
  autosize,                               !- Dedicated Outdoor Air Low Setpoint Temperature for Design {C}
  autosize;                               !- Dedicated Outdoor Air High Setpoint Temperature for Design {C}

OS:ZoneHVAC:EquipmentList,
  {e222beb8-9b28-4929-b82f-737ab770320a}, !- Handle
  {466526d4-468e-4421-bcba-18b8584cd783}, !- Name
  {6df5df9b-eabd-414c-b942-139816fcb396}; !- Thermal Zone

OS:Space,
  {14ddf9c5-9020-4ed4-a497-732586abf357}, !- Handle
  16 Garage,                              !- Name
  ,                                       !- Space Type Name
  ,                                       !- Default Construction Set Name
  ,                                       !- Default Schedule Set Name
  ,                                       !- Direction of Relative North {deg}
  ,                                       !- X Origin {m}
  ,                                       !- Y Origin {m}
  ,                                       !- Z Origin {m}
  {f61609df-dd1f-4193-9f55-0ab1595c4bfa}, !- Building Story Name
  {f24bce10-2164-4335-bfe0-a9c34587f95e}; !- Thermal Zone Name

OS:ThermalZone,
  {f24bce10-2164-4335-bfe0-a9c34587f95e}, !- Handle
  16 Garage ThermalZone,                  !- Name
  ,                                       !- Multiplier
  ,                                       !- Ceiling Height {m}
  ,                                       !- Volume {m3}
  ,                                       !- Floor Area {m2}
  ,                                       !- Zone Inside Convection Algorithm
  ,                                       !- Zone Outside Convection Algorithm
  ,                                       !- Zone Conditioning Equipment List Name
  {d53c6bb6-c162-44a6-99d1-8c2aa8b6d469}, !- Zone Air Inlet Port List
  {b1d92114-b882-4ee8-bbe0-33df30118b30}, !- Zone Air Exhaust Port List
  {4a61a5b9-5b9b-4021-b942-3da35863f866}, !- Zone Air Node Name
  ,                                       !- Zone Return Air Node Name
  ,                                       !- Primary Daylighting Control Name
  ,                                       !- Fraction of Zone Controlled by Primary Daylighting Control
  ,                                       !- Secondary Daylighting Control Name
  ,                                       !- Fraction of Zone Controlled by Secondary Daylighting Control
  ,                                       !- Illuminance Map Name
  {91af6ae6-77f6-4a96-b4e4-262f99d21566}, !- Group Rendering Name
  ,                                       !- Thermostat Name
  No;                                     !- Use Ideal Air Loads

OS:Node,
  {5cb9f8cd-73f1-4e61-a40e-fb4cf4b42a41}, !- Handle
  {5522866d-3434-4a5b-9731-ee3275ca05dd}, !- Name
  {4a61a5b9-5b9b-4021-b942-3da35863f866}, !- Inlet Port
  ;                                       !- Outlet Port

OS:Connection,
  {4a61a5b9-5b9b-4021-b942-3da35863f866}, !- Handle
  {9f1697be-db26-4d51-aadf-f0b67ef3757c}, !- Name